(PID.TID 0000.0001) 
(PID.TID 0000.0001) // ======================================================
(PID.TID 0000.0001) //                      MITgcm UV
(PID.TID 0000.0001) //                      =========
(PID.TID 0000.0001) // ======================================================
(PID.TID 0000.0001) // execution environment starting up...
(PID.TID 0000.0001) 
(PID.TID 0000.0001) // MITgcmUV version:  checkpoint54f_post
(PID.TID 0000.0001) // Build user:        heimbach
(PID.TID 0000.0001) // Build host:        sea
(PID.TID 0000.0001) // Build date:        Thu Sep 16 19:12:08 EDT 2004
(PID.TID 0000.0001) 
(PID.TID 0000.0001) // =======================================================
(PID.TID 0000.0001) // Execution Environment parameter file "eedata"
(PID.TID 0000.0001) // =======================================================
(PID.TID 0000.0001) ># Example "eedata" file
(PID.TID 0000.0001) ># Lines beginning "#" are comments
(PID.TID 0000.0001) ># nTx - No. threads per process in X
(PID.TID 0000.0001) ># nTy - No. threads per process in Y
(PID.TID 0000.0001) > &EEPARMS
(PID.TID 0000.0001) > nTx=1,nTy=1
(PID.TID 0000.0001) > /
(PID.TID 0000.0001) ># Note: Some systems use & as the
(PID.TID 0000.0001) ># namelist terminator. Other systems
(PID.TID 0000.0001) ># use a / character (as shown here).
(PID.TID 0000.0001) 
(PID.TID 0000.0001) // =======================================================
(PID.TID 0000.0001) // Computational Grid Specification ( see files "SIZE.h" )
(PID.TID 0000.0001) //                                  ( and "eedata"       )
(PID.TID 0000.0001) // =======================================================
(PID.TID 0000.0001)      nPx =    1 ; /* No. processes in X */
(PID.TID 0000.0001)      nPy =    1 ; /* No. processes in Y */
(PID.TID 0000.0001)      nSx =    1 ; /* No. tiles in X per process */
(PID.TID 0000.0001)      nSy =    1 ; /* No. tiles in Y per process */
(PID.TID 0000.0001)      sNx =   90 ; /* Tile size in X */
(PID.TID 0000.0001)      sNy =   40 ; /* Tile size in Y */
(PID.TID 0000.0001)      OLx =    3 ; /* Tile overlap distance in X */
(PID.TID 0000.0001)      OLy =    3 ; /* Tile overlap distance in Y */
(PID.TID 0000.0001)      nTx =    1 ; /* No. threads in X per process */
(PID.TID 0000.0001)      nTy =    1 ; /* No. threads in Y per process */
(PID.TID 0000.0001)       Nr =   15 ; /* No. levels in the vertical   */
(PID.TID 0000.0001)       nX =   90 ; /* Total domain size in X ( = nPx*nSx*sNx ) */
(PID.TID 0000.0001)       nY =   40 ; /* Total domain size in Y ( = nPy*nSy*sNy ) */
(PID.TID 0000.0001)   nTiles =    1 ; /* Total no. tiles per process ( = nSx*nSy ) */
(PID.TID 0000.0001)   nProcs =    1 ; /* Total no. processes ( = nPx*nPy ) */
(PID.TID 0000.0001) nThreads =    1 ; /* Total no. threads per process ( = nTx*nTy ) */
(PID.TID 0000.0001) usingMPI =    F ; /* Flag used to control whether MPI is in use */
(PID.TID 0000.0001)                   /*  note: To execute a program with MPI calls */
(PID.TID 0000.0001)                   /*  it must be launched appropriately e.g     */
(PID.TID 0000.0001)                   /*  "mpirun -np 64 ......"                    */
(PID.TID 0000.0001) useCoupler=   F ; /* Flag used to control communications with */
(PID.TID 0000.0001)                   /*  other model components, through a coupler */
(PID.TID 0000.0001) 
(PID.TID 0000.0001) // ======================================================
(PID.TID 0000.0001) // Mapping of tiles to threads
(PID.TID 0000.0001) // ======================================================
(PID.TID 0000.0001) // -o- Thread   1, tiles (   1:   1,   1:   1)
(PID.TID 0000.0001) 
(PID.TID 0000.0001) // ======================================================
(PID.TID 0000.0001) // Tile <-> Tile connectvity table
(PID.TID 0000.0001) // ======================================================
(PID.TID 0000.0001) // Tile number: 000001 (process no. = 000001)
(PID.TID 0000.0001) //        WEST: Tile = 000001, Process = 000001, Comm = put
(PID.TID 0000.0001) //                bi = 000001, bj = 000001
(PID.TID 0000.0001) //        EAST: Tile = 000001, Process = 000001, Comm = put
(PID.TID 0000.0001) //                bi = 000001, bj = 000001
(PID.TID 0000.0001) //       SOUTH: Tile = 000001, Process = 000001, Comm = put
(PID.TID 0000.0001) //                bi = 000001, bj = 000001
(PID.TID 0000.0001) //       NORTH: Tile = 000001, Process = 000001, Comm = put
(PID.TID 0000.0001) //                bi = 000001, bj = 000001
(PID.TID 0000.0001) 
(PID.TID 0000.0001) // =======================================================
(PID.TID 0000.0001) // Model parameter file "data"
(PID.TID 0000.0001) // =======================================================
(PID.TID 0000.0001) ># ====================
(PID.TID 0000.0001) ># | Model parameters |
(PID.TID 0000.0001) ># ====================
(PID.TID 0000.0001) >#
(PID.TID 0000.0001) ># Continuous equation parameters
(PID.TID 0000.0001) > &PARM01
(PID.TID 0000.0001) > tRef = 15*20.,
(PID.TID 0000.0001) > sRef = 15*35.,
(PID.TID 0000.0001) > viscAr=1.E-3,
(PID.TID 0000.0001) > viscAh=5.E5,
(PID.TID 0000.0001) > diffKhT=0.0,
(PID.TID 0000.0001) > diffKrT=3.E-5,
(PID.TID 0000.0001) > diffKhS=0.0,
(PID.TID 0000.0001) > diffKrS=3.E-5,
(PID.TID 0000.0001) > rhonil=1035.,
(PID.TID 0000.0001) > gravity=9.81,
(PID.TID 0000.0001) >#ph( new test
(PID.TID 0000.0001) > eosType = 'JMD95Z',
(PID.TID 0000.0001) ># eosType = 'POLY3',
(PID.TID 0000.0001) >#ph)
(PID.TID 0000.0001) > ivdc_kappa=100.,
(PID.TID 0000.0001) > implicitDiffusion=.TRUE.,
(PID.TID 0000.0001) > allowFreezing=.TRUE.,
(PID.TID 0000.0001) > useRealFreshWaterFlux=.TRUE.,
(PID.TID 0000.0001) >#ph( new test
(PID.TID 0000.0001) > useCDscheme=.FALSE.,
(PID.TID 0000.0001) > vectorInvariantMomentum=.TRUE.,
(PID.TID 0000.0001) > exactConserv = .TRUE.,
(PID.TID 0000.0001) > staggerTimeStep=.TRUE.,
(PID.TID 0000.0001) > multiDimAdvection=.TRUE.,
(PID.TID 0000.0001) > tempAdvScheme=3,
(PID.TID 0000.0001) > saltAdvScheme=3,
(PID.TID 0000.0001) > bottomDragQuadratic=1.E-3,
(PID.TID 0000.0001) > bottomDragLinear=1.E-3,
(PID.TID 0000.0001) >#ph)
(PID.TID 0000.0001) ># turn on looped cells
(PID.TID 0000.0001) > hFacMin=.05,
(PID.TID 0000.0001) > hFacMindr=50.,
(PID.TID 0000.0001) ># set precision of data files
(PID.TID 0000.0001) > readBinaryPrec=32,
(PID.TID 0000.0001) > &
(PID.TID 0000.0001) >
(PID.TID 0000.0001) ># Elliptic solver parameters
(PID.TID 0000.0001) > &PARM02
(PID.TID 0000.0001) > cg2dMaxIters=500,
(PID.TID 0000.0001) > cg2dTargetResidual=1.E-13,
(PID.TID 0000.0001) > &
(PID.TID 0000.0001) >
(PID.TID 0000.0001) ># Time stepping parameters
(PID.TID 0000.0001) > &PARM03
(PID.TID 0000.0001) > nIter0 =      0,
(PID.TID 0000.0001) > nTimeSteps = 120,
(PID.TID 0000.0001) ># 100 years of integration will yield a reasonable flow field
(PID.TID 0000.0001) ># startTime  =          0.,
(PID.TID 0000.0001) ># endTime    = 3110400000.,
(PID.TID 0000.0001) > deltaTmom = 1200.0,
(PID.TID 0000.0001) ># tauCD =     321428.,
(PID.TID 0000.0001) > deltaTtracer= 43200.0,
(PID.TID 0000.0001) > deltaTClock = 43200.0,
(PID.TID 0000.0001) ># if you are using a version later than checkpoint45d on the main branch
(PID.TID 0000.0001) ># you can uncomment the following line and increase the time step
(PID.TID 0000.0001) ># deltaTtracer and deltaTClock to 172800.0 as well to speed up the
(PID.TID 0000.0001) ># asynchronous time stepping
(PID.TID 0000.0001) ># deltaTfreesurf = 172800.0,
(PID.TID 0000.0001) > abEps = 0.1,
(PID.TID 0000.0001) > pChkptFreq= 311040000.,
(PID.TID 0000.0001) > dumpFreq=   311040000.,
(PID.TID 0000.0001) > dumpFreq=   864000.,
(PID.TID 0000.0001) > taveFreq=   311040000.,
(PID.TID 0000.0001) > taveFreq=   864000.,
(PID.TID 0000.0001) >#monitorFreq=31104000.,
(PID.TID 0000.0001) > monitorFreq=1.,
(PID.TID 0000.0001) ># 2 months restoring timescale for temperature
(PID.TID 0000.0001) > tauThetaClimRelax =  5184000.0,
(PID.TID 0000.0001) ># 6 months restoring timescale for salinity
(PID.TID 0000.0001) > tauSaltClimRelax = 15552000.0,
(PID.TID 0000.0001) > periodicExternalForcing=.TRUE.,
(PID.TID 0000.0001) > externForcingPeriod=2592000.,
(PID.TID 0000.0001) > externForcingCycle=31104000.,
(PID.TID 0000.0001) > &
(PID.TID 0000.0001) >
(PID.TID 0000.0001) ># Gridding parameters
(PID.TID 0000.0001) > &PARM04
(PID.TID 0000.0001) > usingCartesianGrid=.FALSE.,
(PID.TID 0000.0001) > usingSphericalPolarGrid=.TRUE.,
(PID.TID 0000.0001) > delR= 50., 70., 100., 140., 190.,
(PID.TID 0000.0001) >       240., 290., 340., 390., 440.,
(PID.TID 0000.0001) >       490., 540., 590., 640., 690.,
(PID.TID 0000.0001) > phiMin=-80.,
(PID.TID 0000.0001) > dySpacing=4.,
(PID.TID 0000.0001) > dxSpacing=4.,
(PID.TID 0000.0001) > &
(PID.TID 0000.0001) >
(PID.TID 0000.0001) ># Input datasets
(PID.TID 0000.0001) > &PARM05
(PID.TID 0000.0001) > bathyFile=      'bathymetry.bin',
(PID.TID 0000.0001) > hydrogThetaFile='lev_t.bin',
(PID.TID 0000.0001) > hydrogSaltFile= 'lev_s.bin',
(PID.TID 0000.0001) > zonalWindFile=  'trenberth_taux.bin',
(PID.TID 0000.0001) > meridWindFile=  'trenberth_tauy.bin',
(PID.TID 0000.0001) > thetaClimFile=  'lev_sst.bin',
(PID.TID 0000.0001) > saltClimFile=   'lev_sss.bin',
(PID.TID 0000.0001) > surfQFile=      'ncep_qnet.bin',
(PID.TID 0000.0001) ># fresh water flux is turned off, uncomment next line to turn on
(PID.TID 0000.0001) ># (not recommened together with surface salinity restoring)
(PID.TID 0000.0001) ># EmPmRFile=      'ncep_emp.bin',
(PID.TID 0000.0001) > &
(PID.TID 0000.0001) 
(PID.TID 0000.0001) S/R INI_PARMS ; read PARM01 : OK
(PID.TID 0000.0001) S/R INI_PARMS ; read PARM02 : OK
(PID.TID 0000.0001) S/R INI_PARMS ; read PARM03 : OK
(PID.TID 0000.0001) S/R INI_PARMS ; read PARM04 : OK
(PID.TID 0000.0001) S/R INI_PARMS ; read PARM05 : OK
(PID.TID 0000.0001) %MON XC_max                       =   3.5800000000000E+02
(PID.TID 0000.0001) %MON XC_min                       =   2.0000000000000E+00
(PID.TID 0000.0001) %MON XC_mean                      =   1.8000000000000E+02
(PID.TID 0000.0001) %MON XC_sd                        =   1.0391663325314E+02
(PID.TID 0000.0001) %MON XG_max                       =   3.5600000000000E+02
(PID.TID 0000.0001) %MON XG_min                       =   4.0000000000000E+00
(PID.TID 0000.0001) %MON XG_mean                      =   1.8000000000000E+02
(PID.TID 0000.0001) %MON XG_sd                        =   1.0276186062932E+02
(PID.TID 0000.0001) %MON DXC_max                      =   4.4443898815675E+05
(PID.TID 0000.0001) %MON DXC_min                      =   9.2460385861875E+04
(PID.TID 0000.0001) %MON DXC_mean                     =   3.1372497618153E+05
(PID.TID 0000.0001) %MON DXC_sd                       =   1.1216447457560E+05
(PID.TID 0000.0001) %MON DXF_max                      =   4.4443898815675E+05
(PID.TID 0000.0001) %MON DXF_min                      =   9.2460385861875E+04
(PID.TID 0000.0001) %MON DXF_mean                     =   3.1372497618153E+05
(PID.TID 0000.0001) %MON DXF_sd                       =   1.1216447457560E+05
(PID.TID 0000.0001) %MON DXG_max                      =   4.4470989340816E+05
(PID.TID 0000.0001) %MON DXG_min                      =   7.7223062580781E+04
(PID.TID 0000.0001) %MON DXG_mean                     =   3.1353386340260E+05
(PID.TID 0000.0001) %MON DXG_sd                       =   1.1256651772502E+05
(PID.TID 0000.0001) %MON DXV_max                      =   4.4470989340816E+05
(PID.TID 0000.0001) %MON DXV_min                      =   7.7223062580781E+04
(PID.TID 0000.0001) %MON DXV_mean                     =   3.1353386340260E+05
(PID.TID 0000.0001) %MON DXV_sd                       =   1.1256651772502E+05
(PID.TID 0000.0001) %MON YC_max                       =   7.8000000000000E+01
(PID.TID 0000.0001) %MON YC_min                       =  -7.8000000000000E+01
(PID.TID 0000.0001) %MON YC_mean                      =   0.0000000000000E+00
(PID.TID 0000.0001) %MON YC_sd                        =   4.6173585522461E+01
(PID.TID 0000.0001) %MON YG_max                       =   7.6000000000000E+01
(PID.TID 0000.0001) %MON YG_min                       =  -8.0000000000000E+01
(PID.TID 0000.0001) %MON YG_mean                      =  -2.0512820512821E+00
(PID.TID 0000.0001) %MON YG_sd                        =   4.6760682979564E+01
(PID.TID 0000.0001) %MON DYC_max                      =   4.4470989340816E+05
(PID.TID 0000.0001) %MON DYC_min                      =   4.4470989340816E+05
(PID.TID 0000.0001) %MON DYC_mean                     =   4.4470989340814E+05
(PID.TID 0000.0001) %MON DYC_sd                       =   1.9848812371492E-08
(PID.TID 0000.0001) %MON DYF_max                      =   4.4470989340816E+05
(PID.TID 0000.0001) %MON DYF_min                      =   4.4470989340816E+05
(PID.TID 0000.0001) %MON DYF_mean                     =   4.4470989340814E+05
(PID.TID 0000.0001) %MON DYF_sd                       =   1.9848812371492E-08
(PID.TID 0000.0001) %MON DYG_max                      =   4.4470989340816E+05
(PID.TID 0000.0001) %MON DYG_min                      =   4.4470989340816E+05
(PID.TID 0000.0001) %MON DYG_mean                     =   4.4470989340814E+05
(PID.TID 0000.0001) %MON DYG_sd                       =   1.9848812371492E-08
(PID.TID 0000.0001) %MON DYU_max                      =   4.4470989340816E+05
(PID.TID 0000.0001) %MON DYU_min                      =   4.4470989340816E+05
(PID.TID 0000.0001) %MON DYU_mean                     =   4.4470989340814E+05
(PID.TID 0000.0001) %MON DYU_sd                       =   1.9848812371492E-08
(PID.TID 0000.0001) %MON RA_max                       =   1.9760627980089E+11
(PID.TID 0000.0001) %MON RA_min                       =   4.1109698667290E+10
(PID.TID 0000.0001) %MON RA_mean                      =   1.3948826965197E+11
(PID.TID 0000.0001) %MON RA_sd                        =   4.9870522472902E+10
(PID.TID 0000.0001) %MON RAW_max                      =   1.9760627980089E+11
(PID.TID 0000.0001) %MON RAW_min                      =   4.1109698667290E+10
(PID.TID 0000.0001) %MON RAW_mean                     =   1.3948826965197E+11
(PID.TID 0000.0001) %MON RAW_sd                       =   4.9870522472902E+10
(PID.TID 0000.0001) %MON RAS_max                      =   1.9772672958215E+11
(PID.TID 0000.0001) %MON RAS_min                      =   3.4334886267982E+10
(PID.TID 0000.0001) %MON RAS_mean                     =   1.3940329716694E+11
(PID.TID 0000.0001) %MON RAS_sd                       =   5.0049278732354E+10
(PID.TID 0000.0001) %MON RAZ_max                      =   1.9772672958215E+11
(PID.TID 0000.0001) %MON RAZ_min                      =   3.4334886267982E+10
(PID.TID 0000.0001) %MON RAZ_mean                     =   1.3940329716694E+11
(PID.TID 0000.0001) %MON RAZ_sd                       =   5.0049278732354E+10
(PID.TID 0000.0001)  MDSREADFIELD: opening global file: bathymetry.bin
(PID.TID 0000.0001) // =======================================================
(PID.TID 0000.0001) // Field Model R_low (ini_masks_etc) at iteration          1
(PID.TID 0000.0001) // CMIN =         -5.200000000000000E+03
(PID.TID 0000.0001) // CMAX =         -1.200000000000000E+02
(PID.TID 0000.0001) // CINT =          1.881481481481482E+02
(PID.TID 0000.0001) // SYMBOLS (CMIN->CMAX): -abcdefghijklmnopqrstuvwxyz+
(PID.TID 0000.0001) //                  0.0: .
(PID.TID 0000.0001) // RANGE I (Lo:Hi:Step):(  -2:  93:   1)
(PID.TID 0000.0001) // RANGE J (Lo:Hi:Step):(  43:  -2:  -1)
(PID.TID 0000.0001) // RANGE K (Lo:Hi:Step):(   1:   1:   1)
(PID.TID 0000.0001) // =======================================================
(PID.TID 0000.0001) K =   1
(PID.TID 0000.0001) //                I=7       I=17      I=27      I=37      I=47      I=57      I=67      I=77      I=87
(PID.TID 0000.0001) // |--J--|**0123456|890123456|890123456|890123456|890123456|890123456|890123456|890123456|890123456|890123
(PID.TID 0000.0001) //     43 ................................................................................................
(PID.TID 0000.0001) //     42 .............................................zyxxmgfeeefefgimnpwwwy..+zyy.....yyyyoiiihhz+......
(PID.TID 0000.0001) //     41 ................................................................................................
(PID.TID 0000.0001) //     40 +qlloqz+.++++zzz++++++..................................................................+++qlloq
(PID.TID 0000.0001) //     39 uslloorzzzzzzzzz+...++.....................................................yxxz........+zvuslloo
(PID.TID 0000.0001) //     38 smqpporzzzzzz+++...........................................................zxxy+......zyyvsmqppo
(PID.TID 0000.0001) //     37 smmmuz..................................................................++...zy+...yttyy.+smmmuz
(PID.TID 0000.0001) //     36 yutt+.........................................mm++....................+++++++znmm.yoowssvuyutt+.
(PID.TID 0000.0001) //     35 w++++.................................+zzz..rrmmkk+...+gghn...........+++....+nmiijlsoopuww++++.
(PID.TID 0000.0001) //     34 +.....................................+vvy.ggqyxv+y.ccdffhim..................+nihhikkihhm+.....
(PID.TID 0000.0001) //     33 w+.....................................uuz---h------aaabdefin+.................zqvddflifffw+....
(PID.TID 0000.0001) //     32 m+.....................................+t----h---------acdfgnn................+++gdffkofffm+....
(PID.TID 0000.0001) //     31 m......................................-----ad--------abddegil..............qbaafccdhqqgddm.....
(PID.TID 0000.0001) //     30 i.....................................f----b--b------------abd............zfbb--fbcdosjfddi.....
(PID.TID 0000.0001) //     29 i...................................tu----e---fjg----------abdf...........eaac--abfmijaadgi.....
(PID.TID 0000.0001) //     28 z.................................+xfl-------------------bdedefi.........qbaa---aemfbbaaejz.....
(PID.TID 0000.0001) //     27 .................xx..............+wfgfpf--------eallc---bbbccefgi...+++x.qb-----akfa---ah.......
(PID.TID 0000.0001) //     26 .................xnn...........+vd---dna------a--aicfna---aabdfghku.++xssuy-----bgca---ci.......
(PID.TID 0000.0001) //     25 .................iiik...oo+...+ivd---doaa-bc--ilglf--aa---aabcghhkll...ssum+xaaacjbaabdjk.......
(PID.TID 0000.0001) //     24 ...............xnheeft.kkk+...uii.aagdm----aa-----a-------bbbcdefjljjju.zummwwbbchba--abi.......
(PID.TID 0000.0001) //     23 ...............xgheefp.iikw...uuw..fihi----fed-----eaaa--bbbbcdfflkjiiiq....zykccefa--abd.......
(PID.TID 0000.0001) //     22 quss...........bbelffslffkk...zz.wqkeeqoheccdfa-----egabaabcdddegghliiiqq......xeeehheehccquss..
(PID.TID 0000.0001) //     21 cbbeir........nbbcdjhqdddiiz.....wqfeelgghmedea-----bibbcddddddefghklnqoo........ieeflhgcccbbeir
(PID.TID 0000.0001) //     20 cbbder.......ldcccdgkccccidd......z.vkkktqqhegg----aaacddddddddefghkiiijl.........nhfa--gfcbbder
(PID.TID 0000.0001) //     19 hcdaaf.......kddosggpaaaibbccx...+z+.....r+nlec---agaaabcddccddefikfgffff...........d---cjhcdaaf
(PID.TID 0000.0001) //     18 hd---d.......kglggvliaaaibbcaaeaiv++...qqzolhecccfdgkaabcdfccdeeikgfgffdd+..........d---djhd---d
(PID.TID 0000.0001) //     17 hc---c.......l.feewlfaaaoaa----aiv.....qqnllslmlofcdbaacceffffhhligfigeddj.........hd---ckhc---c
(PID.TID 0000.0001) //     16 gba--c......tn.ddgnlfdaaqa-----lv.......vnllvllnwv--accivomfffhilhgfffeddjf........re--aeigba--c
(PID.TID 0000.0001) //     15 fb--dpz....+ll.ccdfhmdddlc----av.........otsxoomv---abccddfihgijkhgfffeejfff......+fd---ckfb--dp
(PID.TID 0000.0001) //     14 fc--mcl....weeqbaafilkfend--eagy.........hhstofft----aacdheefijkmjhhjijiffff.....zlfdaaadlfc--mc
(PID.TID 0000.0001) //     13 hcclbbg....nccobaaiddgkffqrqeaal.........eeutqfft------aaceeffhijlkjhhigfffq....+jgfodccflhcclbb
(PID.TID 0000.0001) //     12 hhgaaacw+iiicclemhdddfliigfdcaabfaaaz....ccsurqpc--------abcifffikiiihhggff.....kbbbdfffglhhgaaa
(PID.TID 0000.0001) //     11 kgcaaacbbifccennhbbdefnihgfdccaaaa----..dcccnt.ncab-------aabcdfilhggjiggff....l---abcefjlkgcaaa
(PID.TID 0000.0001) //     10 kfcaaccbdaacfrllfbbdegkmmljhfdddba----d.dcccfx.nyrebaba----abcdgilhfeegijgi..+w--aa-abcfilkfcaac
(PID.TID 0000.0001) //      9 lffcdcccaaaoqsolfdeehikihhlllgfedcccccdmdcccf.vyfaaaaaaaa--abdehmjhfeeefglv.++w-----abcdfklffcdc
(PID.TID 0000.0001) //      8 liffjklcaafddffeeccvznkfffhhhlkjifgjkkfeeddfsyvcaaaaaaccdcccdfgjligedbbceg+.++xffn--cfddefliffjk
(PID.TID 0000.0001) //      7 hmqnnbbkkf--bmbaabbgtykfddeffeeddccdfhlffeelfbaaaaaacddeghgjgjlligeddaaabedfiiiiiisvkfkecchmqnnb
(PID.TID 0000.0001) //      6 cca-------------aabcelttdddedddddccccdfkkiiffbaaaabcdgimmkmefecaaabbbaaabbdfiiiiispmmregifcca---
(PID.TID 0000.0001) //      5 --------a-------aaccehhhiddeddddddcccdfiikomodddefffmlmigedccaaaaaaaababbbdfiijsqgeccccbaa------
(PID.TID 0000.0001) //      4 --ahebaabbbbbeihffgijiiiijpywnnpokkomkiiijmmmolkommmgffeeedccaaaaaabbcccefhmz..yjgeccccbaa--aheb
(PID.TID 0000.0001) //      3 gffhhrpjiiwyy............................yxotmjjjjgfeeeeeeddeffffheddeghjkyy..yqjgeddccdbbgffhhr
(PID.TID 0000.0001) //      2 .............................................zyxxmgfeeefefgimnpwwwy..+zyy.....yyyyoiiihhz+......
(PID.TID 0000.0001) //      1 ................................................................................................
(PID.TID 0000.0001) //      0 +qlloqz+.++++zzz++++++..................................................................+++qlloq
(PID.TID 0000.0001) //     -1 uslloorzzzzzzzzz+...++.....................................................yxxz........+zvuslloo
(PID.TID 0000.0001) //     -2 ................................................................................................
(PID.TID 0000.0001) // =======================================================
(PID.TID 0000.0001) // END OF FIELD                                          =
(PID.TID 0000.0001) // =======================================================
(PID.TID 0000.0001) 
(PID.TID 0000.0001) // =======================================================
(PID.TID 0000.0001) // Field Model Ro_surf (ini_masks_etc) at iteration          1
(PID.TID 0000.0001) // CMIN =          1.000000000000000E+32
(PID.TID 0000.0001) // CMAX =         -1.000000000000000E+32
(PID.TID 0000.0001) // CINT =          0.000000000000000E+00
(PID.TID 0000.0001) // SYMBOLS (CMIN->CMAX): -abcdefghijklmnopqrstuvwxyz+
(PID.TID 0000.0001) //                  0.0: .
(PID.TID 0000.0001) // RANGE I (Lo:Hi:Step):(  -2:  93:   1)
(PID.TID 0000.0001) // RANGE J (Lo:Hi:Step):(  43:  -2:  -1)
(PID.TID 0000.0001) // RANGE K (Lo:Hi:Step):(   1:   1:   1)
(PID.TID 0000.0001) // =======================================================
(PID.TID 0000.0001) // =======================================================
(PID.TID 0000.0001) // END OF FIELD                                          =
(PID.TID 0000.0001) // =======================================================
(PID.TID 0000.0001) 
(PID.TID 0000.0001) // =======================================================
(PID.TID 0000.0001) // Field hFacC at iteration          1
(PID.TID 0000.0001) // CMIN =          1.000000000000000E+00
(PID.TID 0000.0001) // CMAX =          1.000000000000000E+00
(PID.TID 0000.0001) // CINT =          0.000000000000000E+00
(PID.TID 0000.0001) // SYMBOLS (CMIN->CMAX): -abcdefghijklmnopqrstuvwxyz+
(PID.TID 0000.0001) //                  0.0: .
(PID.TID 0000.0001) // RANGE I (Lo:Hi:Step):(  -2:  93:   1)
(PID.TID 0000.0001) // RANGE J (Lo:Hi:Step):(  43:  -2:  -1)
(PID.TID 0000.0001) // RANGE K (Lo:Hi:Step):(   1:   1:   1)
(PID.TID 0000.0001) // =======================================================
(PID.TID 0000.0001) // =======================================================
(PID.TID 0000.0001) // END OF FIELD                                          =
(PID.TID 0000.0001) // =======================================================
(PID.TID 0000.0001) 
(PID.TID 0000.0001) // =======================================================
(PID.TID 0000.0001) // Field hFacW at iteration          1
(PID.TID 0000.0001) // CMIN =          1.000000000000000E+00
(PID.TID 0000.0001) // CMAX =          1.000000000000000E+00
(PID.TID 0000.0001) // CINT =          0.000000000000000E+00
(PID.TID 0000.0001) // SYMBOLS (CMIN->CMAX): -abcdefghijklmnopqrstuvwxyz+
(PID.TID 0000.0001) //                  0.0: .
(PID.TID 0000.0001) // RANGE I (Lo:Hi:Step):(  -2:  93:   1)
(PID.TID 0000.0001) // RANGE J (Lo:Hi:Step):(  43:  -2:  -1)
(PID.TID 0000.0001) // RANGE K (Lo:Hi:Step):(   1:   1:   1)
(PID.TID 0000.0001) // =======================================================
(PID.TID 0000.0001) // =======================================================
(PID.TID 0000.0001) // END OF FIELD                                          =
(PID.TID 0000.0001) // =======================================================
(PID.TID 0000.0001) 
(PID.TID 0000.0001) // =======================================================
(PID.TID 0000.0001) // Field hFacS at iteration          1
(PID.TID 0000.0001) // CMIN =          1.000000000000000E+00
(PID.TID 0000.0001) // CMAX =          1.000000000000000E+00
(PID.TID 0000.0001) // CINT =          0.000000000000000E+00
(PID.TID 0000.0001) // SYMBOLS (CMIN->CMAX): -abcdefghijklmnopqrstuvwxyz+
(PID.TID 0000.0001) //                  0.0: .
(PID.TID 0000.0001) // RANGE I (Lo:Hi:Step):(  -2:  93:   1)
(PID.TID 0000.0001) // RANGE J (Lo:Hi:Step):(  43:  -2:  -1)
(PID.TID 0000.0001) // RANGE K (Lo:Hi:Step):(   1:   1:   1)
(PID.TID 0000.0001) // =======================================================
(PID.TID 0000.0001) // =======================================================
(PID.TID 0000.0001) // END OF FIELD                                          =
(PID.TID 0000.0001) // =======================================================
(PID.TID 0000.0001) 
(PID.TID 0000.0001)  PACKAGES_BOOT: opening data.pkg
(PID.TID 0000.0001)  OPEN_COPY_DATA_FILE: opening file data.pkg
(PID.TID 0000.0001) // =======================================================
(PID.TID 0000.0001) // Parameter file "data.pkg"
(PID.TID 0000.0001) // =======================================================
(PID.TID 0000.0001) >#
(PID.TID 0000.0001) ># ********
(PID.TID 0000.0001) ># Packages
(PID.TID 0000.0001) ># ********
(PID.TID 0000.0001) > &PACKAGES
(PID.TID 0000.0001) > useGMRedi    = .TRUE.,
(PID.TID 0000.0001) > useKPP       = .FALSE.,
(PID.TID 0000.0001) > useGrdchk    = .TRUE.,
(PID.TID 0000.0001) > &
(PID.TID 0000.0001) 
(PID.TID 0000.0001)  PACKAGES_BOOT: finished reading data.pkg
(PID.TID 0000.0001)  GM_READPARMS: opening data.gmredi
(PID.TID 0000.0001)  OPEN_COPY_DATA_FILE: opening file data.gmredi
(PID.TID 0000.0001) // =======================================================
(PID.TID 0000.0001) // Parameter file "data.gmredi"
(PID.TID 0000.0001) // =======================================================
(PID.TID 0000.0001) ># GM+Redi package parameters:
(PID.TID 0000.0001) >#     GM_Small_Number  :: epsilon used in computing the slope
(PID.TID 0000.0001) >#     GM_slopeSqCutoff :: slope^2 cut-off value
(PID.TID 0000.0001) >
(PID.TID 0000.0001) >#-from MOM :
(PID.TID 0000.0001) ># GM_background_K: 	G & Mc.W  diffusion coefficient
(PID.TID 0000.0001) ># GM_maxSlope    :	max slope of isopycnals
(PID.TID 0000.0001) ># GM_Scrit       :	transition for scaling diffusion coefficient
(PID.TID 0000.0001) ># GM_Sd          :	half width scaling for diffusion coefficient
(PID.TID 0000.0001) ># GM_taper_scheme:	slope clipping or one of the tapering schemes
(PID.TID 0000.0001) ># GM_Kmin_horiz  :	horizontal diffusion minimum value
(PID.TID 0000.0001) >
(PID.TID 0000.0001) >#-Option parameters (needs to "define" options in GMREDI_OPTIONS.h")
(PID.TID 0000.0001) ># GM_isopycK     :	isopycnal diffusion coefficient (default=GM_background_K)
(PID.TID 0000.0001) ># GM_AdvForm     :	turn on GM Advective form       (default=Skew flux form)
(PID.TID 0000.0001) >
(PID.TID 0000.0001) > &GM_PARM01
(PID.TID 0000.0001) >  GM_Small_Number  = 1.D-20,
(PID.TID 0000.0001) >  GM_slopeSqCutoff = 1.D+08,
(PID.TID 0000.0001) >  GM_AdvForm         = .FALSE.,
(PID.TID 0000.0001) >  GM_isopycK         = 1.1D+3,
(PID.TID 0000.0001) >  GM_background_K    = 0.9D+3,
(PID.TID 0000.0001) >  GM_taper_scheme    = 'dm95',
(PID.TID 0000.0001) >  GM_maxSlope        = 1.D-2,
(PID.TID 0000.0001) >  GM_Kmin_horiz      = 50.,
(PID.TID 0000.0001) >  GM_Scrit           = 4.D-3,
(PID.TID 0000.0001) >  GM_Sd              = 1.D-3,
(PID.TID 0000.0001) >#  GM_Visbeck_alpha   = 1.5D-2,
(PID.TID 0000.0001) >  GM_Visbeck_alpha   = 0.D0,
(PID.TID 0000.0001) >  GM_Visbeck_length  = 2.D+5,
(PID.TID 0000.0001) >  GM_Visbeck_depth   = 1.D+3,
(PID.TID 0000.0001) >  GM_Visbeck_maxval_K= 2.5D+3,
(PID.TID 0000.0001) > &end
(PID.TID 0000.0001) >
(PID.TID 0000.0001) >
(PID.TID 0000.0001) 
(PID.TID 0000.0001)  GM_READPARMS: finished reading data.gmredi
(PID.TID 0000.0001) Processing namelist file data.cost ...
(PID.TID 0000.0001) 
(PID.TID 0000.0001) // =======================================================
(PID.TID 0000.0001) // Gradient check configuration  >>> START <<<
(PID.TID 0000.0001) // =======================================================
(PID.TID 0000.0001) 
(PID.TID 0000.0001)   eps:                              0.100E-01
(PID.TID 0000.0001)   First location:                           1
(PID.TID 0000.0001)   Last location:                            2
(PID.TID 0000.0001)   Increment:                                1
(PID.TID 0000.0001) 
(PID.TID 0000.0001) // =======================================================
(PID.TID 0000.0001) // Gradient check configuration  >>> END <<<
(PID.TID 0000.0001) // =======================================================
(PID.TID 0000.0001) 
(PID.TID 0000.0001) 
(PID.TID 0000.0001) // ===================================
(PID.TID 0000.0001) // GAD parameters :
(PID.TID 0000.0001) // ===================================
(PID.TID 0000.0001) tempAdvScheme =   /* Temp. Horiz.Advection scheme selector */
(PID.TID 0000.0001)                       3
(PID.TID 0000.0001)     ;
(PID.TID 0000.0001) tempVertAdvScheme =   /* Temp. Vert. Advection scheme selector */
(PID.TID 0000.0001)                       3
(PID.TID 0000.0001)     ;
(PID.TID 0000.0001) tempMultiDimAdvec =   /* use Muti-Dim Advec method for Temp */
(PID.TID 0000.0001)                   F
(PID.TID 0000.0001)     ;
(PID.TID 0000.0001) tempAdamsBashforth =   /* use Adams-Bashforth time-stepping for Temp */
(PID.TID 0000.0001)                   T
(PID.TID 0000.0001)     ;
(PID.TID 0000.0001) saltAdvScheme =   /* Salt. Horiz.advection scheme selector */
(PID.TID 0000.0001)                       3
(PID.TID 0000.0001)     ;
(PID.TID 0000.0001) saltVertAdvScheme =   /* Salt. Vert. Advection scheme selector */
(PID.TID 0000.0001)                       3
(PID.TID 0000.0001)     ;
(PID.TID 0000.0001) saltMultiDimAdvec =   /* use Muti-Dim Advec method for Salt */
(PID.TID 0000.0001)                   F
(PID.TID 0000.0001)     ;
(PID.TID 0000.0001) saltAdamsBashforth =   /* use Adams-Bashforth time-stepping for Salt */
(PID.TID 0000.0001)                   T
(PID.TID 0000.0001)     ;
(PID.TID 0000.0001) // ===================================
 ph-wet 1: nvarlength =  96912
 ph-wet 2: surface wet C =  2315
 ph-wet 3: surface wet W =  2206
 ph-wet 4: surface wet S =  2149
 ph-wet 4a:surface wet V =  0
 ph-wet 5: 3D wet points =  29309
 ph-wet 6: no recs for i =  1 1
 ph-wet 6: no recs for i =  2 1
 ph-wet 6: no recs for i =  3 1
 ph-wet 6: no recs for i =  4 1
 ph-wet 6: no recs for i =  5 1
 ph-wet 6: no recs for i =  6 1
 ph-wet 6: no recs for i =  7 0
 ph-wet 6: no recs for i =  8 0
 ph-wet 6: no recs for i =  9 0
 ph-wet 6: no recs for i =  10 0
 ph-wet 6: no recs for i =  11 0
 ph-wet 6: no recs for i =  12 0
 ph-wet 6: no recs for i =  13 0
 ph-wet 6: no recs for i =  14 0
 ph-wet 6: no recs for i =  15 1
 ph-wet 6: no recs for i =  16 0
 ph-wet 6: no recs for i =  17 0
 ph-wet 6: no recs for i =  18 0
 ph-wet 6: no recs for i =  19 0
 ph-wet 6: no recs for i =  20 0
 ph-wet 6: no recs for i =  21 0
 ph-wet 6: no recs for i =  22 0
 ph-wet 6: no recs for i =  23 0
 ph-wet 6: no recs for i =  24 0
 ph-wet 6: no recs for i =  25 0
 ph-wet 6: no recs for i =  26 0
 ph-wet 6: no recs for i =  27 0
 ph-wet 6: no recs for i =  28 0
 ph-wet 6: no recs for i =  29 0
 ph-wet 6: no recs for i =  30 0
 ph-wet 7:  67603
 ph-wet 8:  58618
 ph-wet 13: global nvarlength vor k= 16 96912
 ph-wet 14a: global nWet... k= 1 2315
 ph-wet 14b: global nWet... k= 1 2149
 ph-wet 14c: global nWet... k= 1 2206
 ph-wet 14d: global nWet... k= 1 0
 ph-wet 14a: global nWet... k= 2 2315
 ph-wet 14b: global nWet... k= 2 2149
 ph-wet 14c: global nWet... k= 2 2206
 ph-wet 14d: global nWet... k= 2 0
 ph-wet 14a: global nWet... k= 3 2254
 ph-wet 14b: global nWet... k= 3 2102
 ph-wet 14c: global nWet... k= 3 2146
 ph-wet 14d: global nWet... k= 3 0
 ph-wet 14a: global nWet... k= 4 2215
 ph-wet 14b: global nWet... k= 4 2058
 ph-wet 14c: global nWet... k= 4 2104
 ph-wet 14d: global nWet... k= 4 0
 ph-wet 14a: global nWet... k= 5 2178
 ph-wet 14b: global nWet... k= 5 2027
 ph-wet 14c: global nWet... k= 5 2070
 ph-wet 14d: global nWet... k= 5 0
 ph-wet 14a: global nWet... k= 6 2142
 ph-wet 14b: global nWet... k= 6 1987
 ph-wet 14c: global nWet... k= 6 2029
 ph-wet 14d: global nWet... k= 6 0
 ph-wet 14a: global nWet... k= 7 2114
 ph-wet 14b: global nWet... k= 7 1959
 ph-wet 14c: global nWet... k= 7 2004
 ph-wet 14d: global nWet... k= 7 0
 ph-wet 14a: global nWet... k= 8 2076
 ph-wet 14b: global nWet... k= 8 1918
 ph-wet 14c: global nWet... k= 8 1959
 ph-wet 14d: global nWet... k= 8 0
 ph-wet 14a: global nWet... k= 9 2048
 ph-wet 14b: global nWet... k= 9 1887
 ph-wet 14c: global nWet... k= 9 1925
 ph-wet 14d: global nWet... k= 9 0
 ph-wet 14a: global nWet... k= 10 1999
 ph-wet 14b: global nWet... k= 10 1831
 ph-wet 14c: global nWet... k= 10 1869
 ph-wet 14d: global nWet... k= 10 0
 ph-wet 14a: global nWet... k= 11 1948
 ph-wet 14b: global nWet... k= 11 1771
 ph-wet 14c: global nWet... k= 11 1808
 ph-wet 14d: global nWet... k= 11 0
 ph-wet 14a: global nWet... k= 12 1850
 ph-wet 14b: global nWet... k= 12 1653
 ph-wet 14c: global nWet... k= 12 1705
 ph-wet 14d: global nWet... k= 12 0
 ph-wet 14a: global nWet... k= 13 1655
 ph-wet 14b: global nWet... k= 13 1404
 ph-wet 14c: global nWet... k= 13 1458
 ph-wet 14d: global nWet... k= 13 0
 ph-wet 14a: global nWet... k= 14 1372
 ph-wet 14b: global nWet... k= 14 1118
 ph-wet 14c: global nWet... k= 14 1164
 ph-wet 14d: global nWet... k= 14 0
 ph-wet 14a: global nWet... k= 15 828
 ph-wet 14b: global nWet... k= 15 623
 ph-wet 14c: global nWet... k= 15 671
 ph-wet 14d: global nWet... k= 15 0
 ctrl_init: no. of control variables:  7
 ctrl_init: control vector length:     96912
(PID.TID 0000.0001) GMREDI_CHECK: #define GMREDI
(PID.TID 0000.0001) GM_AdvForm =  /* if FALSE => use SkewFlux Form */
(PID.TID 0000.0001)                   F
(PID.TID 0000.0001)     ;
(PID.TID 0000.0001) GM_AdvSeparate = /* Calc Bolus & Euler Adv. separately */
(PID.TID 0000.0001)                   F
(PID.TID 0000.0001)     ;
(PID.TID 0000.0001) GM_ExtraDiag =  /* Tensor Extra Diag (line 1&2) non 0 */
(PID.TID 0000.0001)                   T
(PID.TID 0000.0001)     ;
(PID.TID 0000.0001) GM_isopycK =   /* Background Isopyc. Diffusivity ( m^2/s ) */
(PID.TID 0000.0001)                 1.100000000000000E+03
(PID.TID 0000.0001)     ;
(PID.TID 0000.0001)  GM_skewflx*K =   /* Background GM_SkewFlx Diffusivity ( m^2/s ) */
(PID.TID 0000.0001)                 9.000000000000000E+02
(PID.TID 0000.0001)     ;
(PID.TID 0000.0001)  GM_advec*K =   /* Backg. GM-Advec(=Bolus) Diffusivity ( m^2/s ) */
(PID.TID 0000.0001)                 0.000000000000000E+00
(PID.TID 0000.0001)     ;
(PID.TID 0000.0001)  GM_Visbeck_alpha =   /* Visbeck alpha coeff. ( ) */
(PID.TID 0000.0001)                 0.000000000000000E+00
(PID.TID 0000.0001)     ;
(PID.TID 0000.0001)  Tapering/Cliping : dm95
(PID.TID 0000.0001)  GM_Small_Number =  /* epsilon used in slope calc */
(PID.TID 0000.0001)                 9.999999999999999E-21
(PID.TID 0000.0001)     ;
(PID.TID 0000.0001)  GM_slopeSqCutoff =  /* Slope^2 cut-off value */
(PID.TID 0000.0001)                 1.000000000000000E+08
(PID.TID 0000.0001)     ;
(PID.TID 0000.0001) CTRL_CHECK: ctrl package
(PID.TID 0000.0001) COST_CHECK: cost package
(PID.TID 0000.0001) %MON fCori_max                    =   1.4226580169407E-04
(PID.TID 0000.0001) %MON fCori_min                    =  -1.4226580169407E-04
(PID.TID 0000.0001) %MON fCori_mean                   =   7.5291817533716E-23
(PID.TID 0000.0001) %MON fCori_sd                     =   9.6335367303778E-05
(PID.TID 0000.0001) %MON fCoriG_max                   =   1.4112379284621E-04
(PID.TID 0000.0001) %MON fCoriG_min                   =  -1.4323448157692E-04
(PID.TID 0000.0001) %MON fCoriG_mean                  =  -3.6726790147928E-06
(PID.TID 0000.0001) %MON fCoriG_sd                    =   9.7510077443652E-05
(PID.TID 0000.0001) %MON fCoriCos_max                 =   1.4535550371427E-04
(PID.TID 0000.0001) %MON fCoriCos_min                 =   3.0239529651320E-05
(PID.TID 0000.0001) %MON fCoriCos_mean                =   1.0260497651149E-04
(PID.TID 0000.0001) %MON fCoriCos_sd                  =   3.6683828681187E-05
(PID.TID 0000.0001) // CG2D normalisation factor =          0.6568267742571170272718184E-04
(PID.TID 0000.0001) 
(PID.TID 0000.0001) CONFIG_CHECK: OK
(PID.TID 0000.0001) // =======================================================
(PID.TID 0000.0001) // Model configuration
(PID.TID 0000.0001) // =======================================================
(PID.TID 0000.0001) //
(PID.TID 0000.0001) // "Physical" paramters ( PARM01 in namelist )
(PID.TID 0000.0001) //
(PID.TID 0000.0001) buoyancyRelation = OCEANIC
(PID.TID 0000.0001) tRef =   /* Reference temperature profile ( oC or oK ) */
(PID.TID 0000.0001)    15 @  2.000000000000000E+01              /* K =  1: 15 */
(PID.TID 0000.0001)     ;
(PID.TID 0000.0001) sRef =   /* Reference salinity profile ( ppt ) */
(PID.TID 0000.0001)    15 @  3.500000000000000E+01              /* K =  1: 15 */
(PID.TID 0000.0001)     ;
(PID.TID 0000.0001) viscAh =   /* Lateral eddy viscosity ( m^2/s ) */
(PID.TID 0000.0001)                 5.000000000000000E+05
(PID.TID 0000.0001)     ;
(PID.TID 0000.0001) viscAhMax =   /* Maximum lateral eddy viscosity ( m^2/s ) */
(PID.TID 0000.0001)                 1.000000000000000E+21
(PID.TID 0000.0001)     ;
(PID.TID 0000.0001) viscAhGrid =   /* Grid dependent lateral eddy viscosity ( non-dim. ) */
(PID.TID 0000.0001)                 0.000000000000000E+00
(PID.TID 0000.0001)     ;
(PID.TID 0000.0001) viscC2leith =   /* Leith harmonic viscosity factor ( non-dom. ) */
(PID.TID 0000.0001)                 0.000000000000000E+00
(PID.TID 0000.0001)     ;
(PID.TID 0000.0001) viscA4 =   /* Lateral biharmonic viscosity ( m^4/s ) */
(PID.TID 0000.0001)                 0.000000000000000E+00
(PID.TID 0000.0001)     ;
(PID.TID 0000.0001) viscA4Max =   /* Maximum biharmonic viscosity ( m^2/s ) */
(PID.TID 0000.0001)                 1.000000000000000E+21
(PID.TID 0000.0001)     ;
(PID.TID 0000.0001) viscA4Grid =   /* Grid dependent biharmonic viscosity ( non-dim. ) */
(PID.TID 0000.0001)                 0.000000000000000E+00
(PID.TID 0000.0001)     ;
(PID.TID 0000.0001) viscC4leith =   /* Leith biharmonic viscosity factor ( non-dom. ) */
(PID.TID 0000.0001)                 0.000000000000000E+00
(PID.TID 0000.0001)     ;
(PID.TID 0000.0001) no_slip_sides =  /* Viscous BCs: No-slip sides */
(PID.TID 0000.0001)                   T
(PID.TID 0000.0001)     ;
(PID.TID 0000.0001) viscAr =   /* Vertical eddy viscosity ( units of r^2/s ) */
(PID.TID 0000.0001)                 1.000000000000000E-03
(PID.TID 0000.0001)     ;
(PID.TID 0000.0001) no_slip_bottom =  /* Viscous BCs: No-slip bottom */
(PID.TID 0000.0001)                   T
(PID.TID 0000.0001)     ;
(PID.TID 0000.0001) diffKhT =   /* Laplacian diffusion of heat laterally ( m^2/s ) */
(PID.TID 0000.0001)                 0.000000000000000E+00
(PID.TID 0000.0001)     ;
(PID.TID 0000.0001) diffK4T =   /* Bihaarmonic diffusion of heat laterally ( m^4/s ) */
(PID.TID 0000.0001)                 0.000000000000000E+00
(PID.TID 0000.0001)     ;
(PID.TID 0000.0001) diffKrT =   /* Laplacian diffusion of heat vertically ( m^2/s ) */
(PID.TID 0000.0001)                 3.000000000000000E-05
(PID.TID 0000.0001)     ;
(PID.TID 0000.0001) diffKhS =   /* Laplacian diffusion of salt laterally ( m^2/s ) */
(PID.TID 0000.0001)                 0.000000000000000E+00
(PID.TID 0000.0001)     ;
(PID.TID 0000.0001) diffK4S =   /* Bihaarmonic diffusion of salt laterally ( m^4/s ) */
(PID.TID 0000.0001)                 0.000000000000000E+00
(PID.TID 0000.0001)     ;
(PID.TID 0000.0001) diffKrS =   /* Laplacian diffusion of salt vertically ( m^2/s ) */
(PID.TID 0000.0001)                 3.000000000000000E-05
(PID.TID 0000.0001)     ;
(PID.TID 0000.0001) diffKrBL79surf =   /* Surface diffusion for Bryan and Lewis 1979 ( m^2/s ) */
(PID.TID 0000.0001)                 0.000000000000000E+00
(PID.TID 0000.0001)     ;
(PID.TID 0000.0001) diffKrBL79deep =   /* Deep diffusion for Bryan and Lewis 1979 ( m^2/s ) */
(PID.TID 0000.0001)                 0.000000000000000E+00
(PID.TID 0000.0001)     ;
(PID.TID 0000.0001) diffKrBL79scl =   /* Depth scale for Bryan and Lewis 1979 ( m ) */
(PID.TID 0000.0001)                 2.000000000000000E+02
(PID.TID 0000.0001)     ;
(PID.TID 0000.0001) diffKrBL79Ho =   /* Turning depth for Bryan and Lewis 1979 ( m ) */
(PID.TID 0000.0001)                -2.000000000000000E+03
(PID.TID 0000.0001)     ;
(PID.TID 0000.0001)  Equation of State : eosType = JMD95Z
(PID.TID 0000.0001) tAlpha =   /* Linear EOS thermal expansion coefficient ( 1/degree ) */
(PID.TID 0000.0001)                 1.234567000000000E+05
(PID.TID 0000.0001)     ;
(PID.TID 0000.0001) sBeta =   /* Linear EOS haline contraction coefficient ( 1/ppt ) */
(PID.TID 0000.0001)                 1.234567000000000E+05
(PID.TID 0000.0001)     ;
(PID.TID 0000.0001) rhonil =   /* Reference density ( kg/m^3 ) */
(PID.TID 0000.0001)                 1.035000000000000E+03
(PID.TID 0000.0001)     ;
(PID.TID 0000.0001) rhoConst =   /* Reference density ( kg/m^3 ) */
(PID.TID 0000.0001)                 1.035000000000000E+03
(PID.TID 0000.0001)     ;
(PID.TID 0000.0001) rhoConstFresh =   /* Reference density ( kg/m^3 ) */
(PID.TID 0000.0001)                 1.035000000000000E+03
(PID.TID 0000.0001)     ;
(PID.TID 0000.0001) gravity =   /* Gravitational acceleration ( m/s^2 ) */
(PID.TID 0000.0001)                 9.810000000000000E+00
(PID.TID 0000.0001)     ;
(PID.TID 0000.0001) gBaro =   /* Barotropic gravity ( m/s^2 ) */
(PID.TID 0000.0001)                 9.810000000000000E+00
(PID.TID 0000.0001)     ;
(PID.TID 0000.0001) rotationPeriod =   /* Rotation Period ( s ) */
(PID.TID 0000.0001)                 8.640000000000000E+04
(PID.TID 0000.0001)     ;
(PID.TID 0000.0001) omega =   /* Angular velocity ( rad/s ) */
(PID.TID 0000.0001)                 7.272205216643040E-05
(PID.TID 0000.0001)     ;
(PID.TID 0000.0001) f0 =   /* Reference coriolis parameter ( 1/s ) */
(PID.TID 0000.0001)                 1.000000000000000E-04
(PID.TID 0000.0001)     ;
(PID.TID 0000.0001) beta =   /* Beta ( 1/(m.s) ) */
(PID.TID 0000.0001)                 9.999999999999999E-12
(PID.TID 0000.0001)     ;
(PID.TID 0000.0001) freeSurfFac =   /* Implicit free surface factor */
(PID.TID 0000.0001)                 1.000000000000000E+00
(PID.TID 0000.0001)     ;
(PID.TID 0000.0001) implicitFreeSurface =   /* Implicit free surface on/off flag */
(PID.TID 0000.0001)                   T
(PID.TID 0000.0001)     ;
(PID.TID 0000.0001) rigidLid =   /* Rigid lid on/off flag */
(PID.TID 0000.0001)                   F
(PID.TID 0000.0001)     ;
(PID.TID 0000.0001) implicSurfPress =   /* Surface Pressure implicit factor (0-1)*/
(PID.TID 0000.0001)                 1.000000000000000E+00
(PID.TID 0000.0001)     ;
(PID.TID 0000.0001) implicDiv2Dflow =   /* Barot. Flow Div. implicit factor (0-1)*/
(PID.TID 0000.0001)                 1.000000000000000E+00
(PID.TID 0000.0001)     ;
(PID.TID 0000.0001) exactConserv =   /* Exact Volume Conservation on/off flag*/
(PID.TID 0000.0001)                   T
(PID.TID 0000.0001)     ;
(PID.TID 0000.0001) uniformLin_PhiSurf =   /* use uniform Bo_surf on/off flag*/
(PID.TID 0000.0001)                   T
(PID.TID 0000.0001)     ;
(PID.TID 0000.0001) nonlinFreeSurf =   /* Non-linear Free Surf. options (-1,0,1,2,3)*/
(PID.TID 0000.0001)                       0
(PID.TID 0000.0001)     ;
(PID.TID 0000.0001)      -1,0= Off ; 1,2,3= On, 2=+rescale gU,gV, 3=+update cg2d solv.
(PID.TID 0000.0001) hFacInf =   /* lower threshold for hFac (nonlinFreeSurf only)*/
(PID.TID 0000.0001)                 2.000000000000000E-01
(PID.TID 0000.0001)     ;
(PID.TID 0000.0001) hFacSup =   /* upper threshold for hFac (nonlinFreeSurf only)*/
(PID.TID 0000.0001)                 2.000000000000000E+00
(PID.TID 0000.0001)     ;
(PID.TID 0000.0001) select_rStar =   /* r* Coordinate options (not yet implemented)*/
(PID.TID 0000.0001)                       0
(PID.TID 0000.0001)     ;
(PID.TID 0000.0001) useRealFreshWaterFlux =   /* Real Fresh Water Flux on/off flag*/
(PID.TID 0000.0001)                   T
(PID.TID 0000.0001)     ;
(PID.TID 0000.0001) convertFW2Salt = /* convert F.W. Flux to Salt Flux (-1=use local S)(ppt)*/
(PID.TID 0000.0001)                -1.000000000000000E+00
(PID.TID 0000.0001)     ;
(PID.TID 0000.0001) nonHydrostatic =  /* Non-Hydrostatic on/off flag */
(PID.TID 0000.0001)                   F
(PID.TID 0000.0001)     ;
(PID.TID 0000.0001) momStepping =  /* Momentum equation on/off flag */
(PID.TID 0000.0001)                   T
(PID.TID 0000.0001)     ;
(PID.TID 0000.0001) momAdvection =  /* Momentum advection on/off flag */
(PID.TID 0000.0001)                   T
(PID.TID 0000.0001)     ;
(PID.TID 0000.0001) momViscosity =  /* Momentum viscosity on/off flag */
(PID.TID 0000.0001)                   T
(PID.TID 0000.0001)     ;
(PID.TID 0000.0001) momImplVertAdv =/* Momentum implicit vert. advection on/off*/
(PID.TID 0000.0001)                   F
(PID.TID 0000.0001)     ;
(PID.TID 0000.0001) implicitViscosity = /* Implicit viscosity on/off flag */
(PID.TID 0000.0001)                   F
(PID.TID 0000.0001)     ;
(PID.TID 0000.0001) useCoriolis =  /* Coriolis on/off flag */
(PID.TID 0000.0001)                   T
(PID.TID 0000.0001)     ;
(PID.TID 0000.0001) useCDscheme =  /* CD scheme on/off flag */
(PID.TID 0000.0001)                   F
(PID.TID 0000.0001)     ;
(PID.TID 0000.0001) useJamartWetPoints= /* Coriolis WetPoints method flag */
(PID.TID 0000.0001)                   F
(PID.TID 0000.0001)     ;
(PID.TID 0000.0001) useJamartMomAdv= /* V.I. Non-linear terms Jamart flag */
(PID.TID 0000.0001)                   F
(PID.TID 0000.0001)     ;
(PID.TID 0000.0001) SadournyCoriolis= /* Sadourny Coriolis discr. flag */
(PID.TID 0000.0001)                   F
(PID.TID 0000.0001)     ;
(PID.TID 0000.0001) upwindVorticity= /* Upwind bias vorticity flag */
(PID.TID 0000.0001)                   F
(PID.TID 0000.0001)     ;
(PID.TID 0000.0001) useAbsVorticity= /* Work with f+zeta in Coriolis */
(PID.TID 0000.0001)                   F
(PID.TID 0000.0001)     ;
(PID.TID 0000.0001) highOrderVorticity= /* High order interp. of vort. flag */
(PID.TID 0000.0001)                   F
(PID.TID 0000.0001)     ;
(PID.TID 0000.0001) momForcing =  /* Momentum forcing on/off flag */
(PID.TID 0000.0001)                   T
(PID.TID 0000.0001)     ;
(PID.TID 0000.0001) momPressureForcing =  /* Momentum pressure term on/off flag */
(PID.TID 0000.0001)                   T
(PID.TID 0000.0001)     ;
(PID.TID 0000.0001) staggerTimeStep =   /* Stagger time stepping on/off flag */
(PID.TID 0000.0001)                   T
(PID.TID 0000.0001)     ;
(PID.TID 0000.0001) multiDimAdvection =   /* enable/disable Multi-Dim Advection */
(PID.TID 0000.0001)                   T
(PID.TID 0000.0001)     ;
(PID.TID 0000.0001) useMultiDimAdvec =   /* Multi-Dim Advection is/is-not used */
(PID.TID 0000.0001)                   F
(PID.TID 0000.0001)     ;
(PID.TID 0000.0001) implicitDiffusion =/* Implicit Diffusion on/off flag */
(PID.TID 0000.0001)                   T
(PID.TID 0000.0001)     ;
(PID.TID 0000.0001) tempStepping =  /* Temperature equation on/off flag */
(PID.TID 0000.0001)                   T
(PID.TID 0000.0001)     ;
(PID.TID 0000.0001) tempAdvection=  /* Temperature advection on/off flag */
(PID.TID 0000.0001)                   T
(PID.TID 0000.0001)     ;
(PID.TID 0000.0001) tempImplVertAdv =/* Temp. implicit vert. advection on/off */
(PID.TID 0000.0001)                   F
(PID.TID 0000.0001)     ;
(PID.TID 0000.0001) tempForcing  =  /* Temperature forcing on/off flag */
(PID.TID 0000.0001)                   T
(PID.TID 0000.0001)     ;
(PID.TID 0000.0001) saltStepping =  /* Salinity equation on/off flag */
(PID.TID 0000.0001)                   T
(PID.TID 0000.0001)     ;
(PID.TID 0000.0001) saltAdvection=  /* Salinity advection on/off flag */
(PID.TID 0000.0001)                   T
(PID.TID 0000.0001)     ;
(PID.TID 0000.0001) saltImplVertAdv =/* Sali. implicit vert. advection on/off */
(PID.TID 0000.0001)                   F
(PID.TID 0000.0001)     ;
(PID.TID 0000.0001) saltForcing  =  /* Salinity forcing on/off flag */
(PID.TID 0000.0001)                   T
(PID.TID 0000.0001)     ;
(PID.TID 0000.0001) //
(PID.TID 0000.0001) // Elliptic solver(s) paramters ( PARM02 in namelist )
(PID.TID 0000.0001) //
(PID.TID 0000.0001) cg2dMaxIters =   /* Upper limit on 2d con. grad iterations  */
(PID.TID 0000.0001)                     500
(PID.TID 0000.0001)     ;
(PID.TID 0000.0001) cg2dChkResFreq =   /* 2d con. grad convergence test frequency */
(PID.TID 0000.0001)                       1
(PID.TID 0000.0001)     ;
(PID.TID 0000.0001) cg2dTargetResidual =   /* 2d con. grad target residual  */
(PID.TID 0000.0001)                 1.000000000000000E-13
(PID.TID 0000.0001)     ;
(PID.TID 0000.0001) cg2dTargetResWunit =   /* CG2d target residual [W units] */
(PID.TID 0000.0001)                -1.000000000000000E+00
(PID.TID 0000.0001)     ;
(PID.TID 0000.0001) cg2dPreCondFreq =   /* Freq. for updating cg2d preconditioner */
(PID.TID 0000.0001)                       1
(PID.TID 0000.0001)     ;
(PID.TID 0000.0001) //
(PID.TID 0000.0001) // Time stepping paramters ( PARM03 in namelist )
(PID.TID 0000.0001) //
(PID.TID 0000.0001) nIter0 =   /* Base timestep number  */
(PID.TID 0000.0001)                       0
(PID.TID 0000.0001)     ;
(PID.TID 0000.0001) nTimeSteps =   /* Number of timesteps */
(PID.TID 0000.0001)                     120
(PID.TID 0000.0001)     ;
(PID.TID 0000.0001) deltatTmom =   /* Momentum equation timestep ( s ) */
(PID.TID 0000.0001)                 1.200000000000000E+03
(PID.TID 0000.0001)     ;
(PID.TID 0000.0001) deltaTfreesurf =   /* FreeSurface equation timestep ( s ) */
(PID.TID 0000.0001)                 1.200000000000000E+03
(PID.TID 0000.0001)     ;
(PID.TID 0000.0001) deltatTtracer =   /* Tracer equation timestep ( s ) */
(PID.TID 0000.0001)                 4.320000000000000E+04
(PID.TID 0000.0001)     ;
(PID.TID 0000.0001) deltatTClock  =   /* Model clock timestep ( s ) */
(PID.TID 0000.0001)                 4.320000000000000E+04
(PID.TID 0000.0001)     ;
(PID.TID 0000.0001) cAdjFreq =   /* Convective adjustment interval ( s ) */
(PID.TID 0000.0001)                 0.000000000000000E+00
(PID.TID 0000.0001)     ;
(PID.TID 0000.0001) forcing_In_AB =   /* put T,S Forcing in Adams-Bash. stepping */
(PID.TID 0000.0001)                   T
(PID.TID 0000.0001)     ;
(PID.TID 0000.0001) abeps =   /* Adams-Bashforth stabilizing weight */
(PID.TID 0000.0001)                 1.000000000000000E-01
(PID.TID 0000.0001)     ;
(PID.TID 0000.0001) startTime =   /* Run start time ( s ). */
(PID.TID 0000.0001)                 0.000000000000000E+00
(PID.TID 0000.0001)     ;
(PID.TID 0000.0001) endTime =   /* Integration ending time ( s ). */
(PID.TID 0000.0001)                 5.184000000000000E+06
(PID.TID 0000.0001)     ;
(PID.TID 0000.0001) pChkPtFreq =   /* Permanent restart/checkpoint file interval ( s ). */
(PID.TID 0000.0001)                 3.110400000000000E+08
(PID.TID 0000.0001)     ;
(PID.TID 0000.0001) chkPtFreq =   /* Rolling restart/checkpoint file interval ( s ). */
(PID.TID 0000.0001)                 0.000000000000000E+00
(PID.TID 0000.0001)     ;
(PID.TID 0000.0001) pickup_write_mdsio =   /* Model IO flag. */
(PID.TID 0000.0001)                   T
(PID.TID 0000.0001)     ;
(PID.TID 0000.0001) pickup_read_mdsio =   /* Model IO flag. */
(PID.TID 0000.0001)                   T
(PID.TID 0000.0001)     ;
(PID.TID 0000.0001) pickup_write_immed =   /* Model IO flag. */
(PID.TID 0000.0001)                   F
(PID.TID 0000.0001)     ;
(PID.TID 0000.0001) dumpFreq =   /* Model state write out interval ( s ). */
(PID.TID 0000.0001)                 8.640000000000000E+05
(PID.TID 0000.0001)     ;
(PID.TID 0000.0001) snapshot_mdsio =   /* Model IO flag. */
(PID.TID 0000.0001)                   T
(PID.TID 0000.0001)     ;
(PID.TID 0000.0001) monitorFreq =   /* Monitor output interval ( s ). */
(PID.TID 0000.0001)                 1.000000000000000E+00
(PID.TID 0000.0001)     ;
(PID.TID 0000.0001) monitor_stdio =   /* Model IO flag. */
(PID.TID 0000.0001)                   T
(PID.TID 0000.0001)     ;
(PID.TID 0000.0001) externForcingPeriod =   /* forcing period (s) */
(PID.TID 0000.0001)                 2.592000000000000E+06
(PID.TID 0000.0001)     ;
(PID.TID 0000.0001) externForcingCycle =   /* period of the cyle (s). */
(PID.TID 0000.0001)                 3.110400000000000E+07
(PID.TID 0000.0001)     ;
(PID.TID 0000.0001) tauThetaClimRelax =   /* relaxation time scale (s) */
(PID.TID 0000.0001)                 5.184000000000000E+06
(PID.TID 0000.0001)     ;
(PID.TID 0000.0001) tauSaltClimRelax =   /* relaxation time scale (s) */
(PID.TID 0000.0001)                 1.555200000000000E+07
(PID.TID 0000.0001)     ;
(PID.TID 0000.0001) latBandClimRelax =   /* max. Lat. where relaxation */
(PID.TID 0000.0001)                 1.800000000000000E+02
(PID.TID 0000.0001)     ;
(PID.TID 0000.0001) //
(PID.TID 0000.0001) // Gridding paramters ( PARM04 in namelist )
(PID.TID 0000.0001) //
(PID.TID 0000.0001) usingCartesianGrid =   /* Cartesian coordinates flag ( True / False ) */
(PID.TID 0000.0001)                   F
(PID.TID 0000.0001)     ;
(PID.TID 0000.0001) usingSphericalPolarGrid =   /* Spherical coordinates flag ( True / False ) */
(PID.TID 0000.0001)                   T
(PID.TID 0000.0001)     ;
(PID.TID 0000.0001) usingCylindricalGrid =   /* Spherical coordinates flag ( True / False ) */
(PID.TID 0000.0001)                   F
(PID.TID 0000.0001)     ;
(PID.TID 0000.0001) groundAtK1 =   /* Lower Boundary (ground) at the surface(k=1) ( T / F ) */
(PID.TID 0000.0001)                   F
(PID.TID 0000.0001)     ;
(PID.TID 0000.0001) Ro_SeaLevel =   /* r(1) ( units of r ) */
(PID.TID 0000.0001)                 0.000000000000000E+00
(PID.TID 0000.0001)     ;
(PID.TID 0000.0001) rkFac =   /* minus Vertical index orientation  */
(PID.TID 0000.0001)                 1.000000000000000E+00
(PID.TID 0000.0001)     ;
(PID.TID 0000.0001) horiVertRatio =   /* Ratio on units : Horiz - Vertical */
(PID.TID 0000.0001)                 1.000000000000000E+00
(PID.TID 0000.0001)     ;
(PID.TID 0000.0001) drC =   /* C spacing ( units of r ) */
(PID.TID 0000.0001)                 2.500000000000000E+01,      /* K =  1 */
(PID.TID 0000.0001)                 6.000000000000000E+01,      /* K =  2 */
(PID.TID 0000.0001)                 8.500000000000000E+01,      /* K =  3 */
(PID.TID 0000.0001)                 1.200000000000000E+02,      /* K =  4 */
(PID.TID 0000.0001)                 1.650000000000000E+02,      /* K =  5 */
(PID.TID 0000.0001)                 2.150000000000000E+02,      /* K =  6 */
(PID.TID 0000.0001)                 2.650000000000000E+02,      /* K =  7 */
(PID.TID 0000.0001)                 3.150000000000000E+02,      /* K =  8 */
(PID.TID 0000.0001)                 3.650000000000000E+02,      /* K =  9 */
(PID.TID 0000.0001)                 4.150000000000000E+02,      /* K = 10 */
(PID.TID 0000.0001)                 4.650000000000000E+02,      /* K = 11 */
(PID.TID 0000.0001)                 5.150000000000000E+02,      /* K = 12 */
(PID.TID 0000.0001)                 5.650000000000000E+02,      /* K = 13 */
(PID.TID 0000.0001)                 6.150000000000000E+02,      /* K = 14 */
(PID.TID 0000.0001)                 6.650000000000000E+02       /* K = 15 */
(PID.TID 0000.0001)     ;
(PID.TID 0000.0001) drF =   /* W spacing ( units of r ) */
(PID.TID 0000.0001)                 5.000000000000000E+01,      /* K =  1 */
(PID.TID 0000.0001)                 7.000000000000000E+01,      /* K =  2 */
(PID.TID 0000.0001)                 1.000000000000000E+02,      /* K =  3 */
(PID.TID 0000.0001)                 1.400000000000000E+02,      /* K =  4 */
(PID.TID 0000.0001)                 1.900000000000000E+02,      /* K =  5 */
(PID.TID 0000.0001)                 2.400000000000000E+02,      /* K =  6 */
(PID.TID 0000.0001)                 2.900000000000000E+02,      /* K =  7 */
(PID.TID 0000.0001)                 3.400000000000000E+02,      /* K =  8 */
(PID.TID 0000.0001)                 3.900000000000000E+02,      /* K =  9 */
(PID.TID 0000.0001)                 4.400000000000000E+02,      /* K = 10 */
(PID.TID 0000.0001)                 4.900000000000000E+02,      /* K = 11 */
(PID.TID 0000.0001)                 5.400000000000000E+02,      /* K = 12 */
(PID.TID 0000.0001)                 5.900000000000000E+02,      /* K = 13 */
(PID.TID 0000.0001)                 6.400000000000000E+02,      /* K = 14 */
(PID.TID 0000.0001)                 6.900000000000000E+02       /* K = 15 */
(PID.TID 0000.0001)     ;
(PID.TID 0000.0001) delX =   /* U spacing ( m - cartesian, degrees - spherical ) */
(PID.TID 0000.0001)    90 @  4.000000000000000E+00              /* I =  1: 90 */
(PID.TID 0000.0001)     ;
(PID.TID 0000.0001) delY =   /* V spacing ( m - cartesian, degrees - spherical ) */
(PID.TID 0000.0001)    40 @  4.000000000000000E+00              /* J =  1: 40 */
(PID.TID 0000.0001)     ;
(PID.TID 0000.0001) phiMin =    /* South edge (ignored - cartesian, degrees - spherical ) */
(PID.TID 0000.0001)                -8.000000000000000E+01
(PID.TID 0000.0001)     ;
(PID.TID 0000.0001) thetaMin =    /* West edge ( ignored - cartesian, degrees - spherical ) */
(PID.TID 0000.0001)                 0.000000000000000E+00
(PID.TID 0000.0001)     ;
(PID.TID 0000.0001) rSphere =    /* Radius ( ignored - cartesian, m - spherical ) */
(PID.TID 0000.0001)                 6.370000000000000E+06
(PID.TID 0000.0001)     ;
(PID.TID 0000.0001) xcoord =   /* P-point X coord ( m - cartesian, degrees - spherical ) */
(PID.TID 0000.0001)                 2.000000000000000E+00,      /* I =  1 */
(PID.TID 0000.0001)                 6.000000000000000E+00,      /* I =  2 */
(PID.TID 0000.0001)                 1.000000000000000E+01,      /* I =  3 */
(PID.TID 0000.0001)                 1.400000000000000E+01,      /* I =  4 */
(PID.TID 0000.0001)                 1.800000000000000E+01,      /* I =  5 */
(PID.TID 0000.0001)                 2.200000000000000E+01,      /* I =  6 */
(PID.TID 0000.0001)                 2.600000000000000E+01,      /* I =  7 */
(PID.TID 0000.0001)                 3.000000000000000E+01,      /* I =  8 */
(PID.TID 0000.0001)                 3.400000000000000E+01,      /* I =  9 */
(PID.TID 0000.0001)                 3.800000000000000E+01,      /* I = 10 */
(PID.TID 0000.0001)                 4.200000000000000E+01,      /* I = 11 */
(PID.TID 0000.0001)                 4.600000000000000E+01,      /* I = 12 */
(PID.TID 0000.0001)                 5.000000000000000E+01,      /* I = 13 */
(PID.TID 0000.0001)                 5.400000000000000E+01,      /* I = 14 */
(PID.TID 0000.0001)                 5.800000000000000E+01,      /* I = 15 */
(PID.TID 0000.0001)                 6.200000000000000E+01,      /* I = 16 */
(PID.TID 0000.0001)                 6.600000000000000E+01,      /* I = 17 */
(PID.TID 0000.0001)                 7.000000000000000E+01,      /* I = 18 */
(PID.TID 0000.0001)                 7.400000000000000E+01,      /* I = 19 */
(PID.TID 0000.0001)                 7.800000000000000E+01,      /* I = 20 */
(PID.TID 0000.0001)                 8.200000000000000E+01,      /* I = 21 */
(PID.TID 0000.0001)                 8.600000000000000E+01,      /* I = 22 */
(PID.TID 0000.0001)                 9.000000000000000E+01,      /* I = 23 */
(PID.TID 0000.0001)                 9.400000000000000E+01,      /* I = 24 */
(PID.TID 0000.0001)                 9.800000000000000E+01,      /* I = 25 */
(PID.TID 0000.0001)                 1.020000000000000E+02,      /* I = 26 */
(PID.TID 0000.0001)                 1.060000000000000E+02,      /* I = 27 */
(PID.TID 0000.0001)                 1.100000000000000E+02,      /* I = 28 */
(PID.TID 0000.0001)                 1.140000000000000E+02,      /* I = 29 */
(PID.TID 0000.0001)                 1.180000000000000E+02,      /* I = 30 */
(PID.TID 0000.0001)                 1.220000000000000E+02,      /* I = 31 */
(PID.TID 0000.0001)                 1.260000000000000E+02,      /* I = 32 */
(PID.TID 0000.0001)                 1.300000000000000E+02,      /* I = 33 */
(PID.TID 0000.0001)                 1.340000000000000E+02,      /* I = 34 */
(PID.TID 0000.0001)                 1.380000000000000E+02,      /* I = 35 */
(PID.TID 0000.0001)                 1.420000000000000E+02,      /* I = 36 */
(PID.TID 0000.0001)                 1.460000000000000E+02,      /* I = 37 */
(PID.TID 0000.0001)                 1.500000000000000E+02,      /* I = 38 */
(PID.TID 0000.0001)                 1.540000000000000E+02,      /* I = 39 */
(PID.TID 0000.0001)                 1.580000000000000E+02,      /* I = 40 */
(PID.TID 0000.0001)                 1.620000000000000E+02,      /* I = 41 */
(PID.TID 0000.0001)                 1.660000000000000E+02,      /* I = 42 */
(PID.TID 0000.0001)                 1.700000000000000E+02,      /* I = 43 */
(PID.TID 0000.0001)                 1.740000000000000E+02,      /* I = 44 */
(PID.TID 0000.0001)                 1.780000000000000E+02,      /* I = 45 */
(PID.TID 0000.0001)                 1.820000000000000E+02,      /* I = 46 */
(PID.TID 0000.0001)                 1.860000000000000E+02,      /* I = 47 */
(PID.TID 0000.0001)                 1.900000000000000E+02,      /* I = 48 */
(PID.TID 0000.0001)                 1.940000000000000E+02,      /* I = 49 */
(PID.TID 0000.0001)                 1.980000000000000E+02,      /* I = 50 */
(PID.TID 0000.0001)                 2.020000000000000E+02,      /* I = 51 */
(PID.TID 0000.0001)                 2.060000000000000E+02,      /* I = 52 */
(PID.TID 0000.0001)                 2.100000000000000E+02,      /* I = 53 */
(PID.TID 0000.0001)                 2.140000000000000E+02,      /* I = 54 */
(PID.TID 0000.0001)                 2.180000000000000E+02,      /* I = 55 */
(PID.TID 0000.0001)                 2.220000000000000E+02,      /* I = 56 */
(PID.TID 0000.0001)                 2.260000000000000E+02,      /* I = 57 */
(PID.TID 0000.0001)                 2.300000000000000E+02,      /* I = 58 */
(PID.TID 0000.0001)                 2.340000000000000E+02,      /* I = 59 */
(PID.TID 0000.0001)                 2.380000000000000E+02,      /* I = 60 */
(PID.TID 0000.0001)                 2.420000000000000E+02,      /* I = 61 */
(PID.TID 0000.0001)                 2.460000000000000E+02,      /* I = 62 */
(PID.TID 0000.0001)                 2.500000000000000E+02,      /* I = 63 */
(PID.TID 0000.0001)                 2.540000000000000E+02,      /* I = 64 */
(PID.TID 0000.0001)                 2.580000000000000E+02,      /* I = 65 */
(PID.TID 0000.0001)                 2.620000000000000E+02,      /* I = 66 */
(PID.TID 0000.0001)                 2.660000000000000E+02,      /* I = 67 */
(PID.TID 0000.0001)                 2.700000000000000E+02,      /* I = 68 */
(PID.TID 0000.0001)                 2.740000000000000E+02,      /* I = 69 */
(PID.TID 0000.0001)                 2.780000000000000E+02,      /* I = 70 */
(PID.TID 0000.0001)                 2.820000000000000E+02,      /* I = 71 */
(PID.TID 0000.0001)                 2.860000000000000E+02,      /* I = 72 */
(PID.TID 0000.0001)                 2.900000000000000E+02,      /* I = 73 */
(PID.TID 0000.0001)                 2.940000000000000E+02,      /* I = 74 */
(PID.TID 0000.0001)                 2.980000000000000E+02,      /* I = 75 */
(PID.TID 0000.0001)                 3.020000000000000E+02,      /* I = 76 */
(PID.TID 0000.0001)                 3.060000000000000E+02,      /* I = 77 */
(PID.TID 0000.0001)                 3.100000000000000E+02,      /* I = 78 */
(PID.TID 0000.0001)                 3.140000000000000E+02,      /* I = 79 */
(PID.TID 0000.0001)                 3.180000000000000E+02,      /* I = 80 */
(PID.TID 0000.0001)                 3.220000000000000E+02,      /* I = 81 */
(PID.TID 0000.0001)                 3.260000000000000E+02,      /* I = 82 */
(PID.TID 0000.0001)                 3.300000000000000E+02,      /* I = 83 */
(PID.TID 0000.0001)                 3.340000000000000E+02,      /* I = 84 */
(PID.TID 0000.0001)                 3.380000000000000E+02,      /* I = 85 */
(PID.TID 0000.0001)                 3.420000000000000E+02,      /* I = 86 */
(PID.TID 0000.0001)                 3.460000000000000E+02,      /* I = 87 */
(PID.TID 0000.0001)                 3.500000000000000E+02,      /* I = 88 */
(PID.TID 0000.0001)                 3.540000000000000E+02,      /* I = 89 */
(PID.TID 0000.0001)                 3.580000000000000E+02       /* I = 90 */
(PID.TID 0000.0001)     ;
(PID.TID 0000.0001) ycoord =   /* P-point Y coord ( m - cartesian, degrees - spherical ) */
(PID.TID 0000.0001)                -7.800000000000000E+01,      /* J =  1 */
(PID.TID 0000.0001)                -7.400000000000000E+01,      /* J =  2 */
(PID.TID 0000.0001)                -7.000000000000000E+01,      /* J =  3 */
(PID.TID 0000.0001)                -6.600000000000000E+01,      /* J =  4 */
(PID.TID 0000.0001)                -6.200000000000000E+01,      /* J =  5 */
(PID.TID 0000.0001)                -5.800000000000000E+01,      /* J =  6 */
(PID.TID 0000.0001)                -5.400000000000000E+01,      /* J =  7 */
(PID.TID 0000.0001)                -5.000000000000000E+01,      /* J =  8 */
(PID.TID 0000.0001)                -4.600000000000000E+01,      /* J =  9 */
(PID.TID 0000.0001)                -4.200000000000000E+01,      /* J = 10 */
(PID.TID 0000.0001)                -3.800000000000000E+01,      /* J = 11 */
(PID.TID 0000.0001)                -3.400000000000000E+01,      /* J = 12 */
(PID.TID 0000.0001)                -3.000000000000000E+01,      /* J = 13 */
(PID.TID 0000.0001)                -2.600000000000000E+01,      /* J = 14 */
(PID.TID 0000.0001)                -2.200000000000000E+01,      /* J = 15 */
(PID.TID 0000.0001)                -1.800000000000000E+01,      /* J = 16 */
(PID.TID 0000.0001)                -1.400000000000000E+01,      /* J = 17 */
(PID.TID 0000.0001)                -1.000000000000000E+01,      /* J = 18 */
(PID.TID 0000.0001)                -6.000000000000000E+00,      /* J = 19 */
(PID.TID 0000.0001)                -2.000000000000000E+00,      /* J = 20 */
(PID.TID 0000.0001)                 2.000000000000000E+00,      /* J = 21 */
(PID.TID 0000.0001)                 6.000000000000000E+00,      /* J = 22 */
(PID.TID 0000.0001)                 1.000000000000000E+01,      /* J = 23 */
(PID.TID 0000.0001)                 1.400000000000000E+01,      /* J = 24 */
(PID.TID 0000.0001)                 1.800000000000000E+01,      /* J = 25 */
(PID.TID 0000.0001)                 2.200000000000000E+01,      /* J = 26 */
(PID.TID 0000.0001)                 2.600000000000000E+01,      /* J = 27 */
(PID.TID 0000.0001)                 3.000000000000000E+01,      /* J = 28 */
(PID.TID 0000.0001)                 3.400000000000000E+01,      /* J = 29 */
(PID.TID 0000.0001)                 3.800000000000000E+01,      /* J = 30 */
(PID.TID 0000.0001)                 4.200000000000000E+01,      /* J = 31 */
(PID.TID 0000.0001)                 4.600000000000000E+01,      /* J = 32 */
(PID.TID 0000.0001)                 5.000000000000000E+01,      /* J = 33 */
(PID.TID 0000.0001)                 5.400000000000000E+01,      /* J = 34 */
(PID.TID 0000.0001)                 5.800000000000000E+01,      /* J = 35 */
(PID.TID 0000.0001)                 6.200000000000000E+01,      /* J = 36 */
(PID.TID 0000.0001)                 6.600000000000000E+01,      /* J = 37 */
(PID.TID 0000.0001)                 7.000000000000000E+01,      /* J = 38 */
(PID.TID 0000.0001)                 7.400000000000000E+01,      /* J = 39 */
(PID.TID 0000.0001)                 7.800000000000000E+01       /* J = 40 */
(PID.TID 0000.0001)     ;
(PID.TID 0000.0001) rcoord =   /* P-point R coordinate (  units of r ) */
(PID.TID 0000.0001)                -2.500000000000000E+01,      /* K =  1 */
(PID.TID 0000.0001)                -8.500000000000000E+01,      /* K =  2 */
(PID.TID 0000.0001)                -1.700000000000000E+02,      /* K =  3 */
(PID.TID 0000.0001)                -2.900000000000000E+02,      /* K =  4 */
(PID.TID 0000.0001)                -4.550000000000000E+02,      /* K =  5 */
(PID.TID 0000.0001)                -6.700000000000000E+02,      /* K =  6 */
(PID.TID 0000.0001)                -9.350000000000000E+02,      /* K =  7 */
(PID.TID 0000.0001)                -1.250000000000000E+03,      /* K =  8 */
(PID.TID 0000.0001)                -1.615000000000000E+03,      /* K =  9 */
(PID.TID 0000.0001)                -2.030000000000000E+03,      /* K = 10 */
(PID.TID 0000.0001)                -2.495000000000000E+03,      /* K = 11 */
(PID.TID 0000.0001)                -3.010000000000000E+03,      /* K = 12 */
(PID.TID 0000.0001)                -3.575000000000000E+03,      /* K = 13 */
(PID.TID 0000.0001)                -4.190000000000000E+03,      /* K = 14 */
(PID.TID 0000.0001)                -4.855000000000000E+03       /* K = 15 */
(PID.TID 0000.0001)     ;
(PID.TID 0000.0001) rF =   /* W-Interf. R coordinate (  units of r ) */
(PID.TID 0000.0001)                 0.000000000000000E+00,      /* K =  1 */
(PID.TID 0000.0001)                -5.000000000000000E+01,      /* K =  2 */
(PID.TID 0000.0001)                -1.200000000000000E+02,      /* K =  3 */
(PID.TID 0000.0001)                -2.200000000000000E+02,      /* K =  4 */
(PID.TID 0000.0001)                -3.600000000000000E+02,      /* K =  5 */
(PID.TID 0000.0001)                -5.500000000000000E+02,      /* K =  6 */
(PID.TID 0000.0001)                -7.900000000000000E+02,      /* K =  7 */
(PID.TID 0000.0001)                -1.080000000000000E+03,      /* K =  8 */
(PID.TID 0000.0001)                -1.420000000000000E+03,      /* K =  9 */
(PID.TID 0000.0001)                -1.810000000000000E+03,      /* K = 10 */
(PID.TID 0000.0001)                -2.250000000000000E+03,      /* K = 11 */
(PID.TID 0000.0001)                -2.740000000000000E+03,      /* K = 12 */
(PID.TID 0000.0001)                -3.280000000000000E+03,      /* K = 13 */
(PID.TID 0000.0001)                -3.870000000000000E+03,      /* K = 14 */
(PID.TID 0000.0001)                -4.510000000000000E+03,      /* K = 15 */
(PID.TID 0000.0001)                -5.200000000000000E+03       /* K = 16 */
(PID.TID 0000.0001)     ;
(PID.TID 0000.0001) dxF =  /* dxF(:,1,:,1) ( m - cartesian, degrees - spherical ) */
(PID.TID 0000.0001)    90 @  9.246038586187513E+04              /* I =  1: 90 */
(PID.TID 0000.0001)     ;
(PID.TID 0000.0001) dxF =  /* dxF(1,:,1,:) ( m - cartesian, degrees - spherical ) */
(PID.TID 0000.0001)                 9.246038586187513E+04,      /* J =  1 */
(PID.TID 0000.0001)                 1.225786591246834E+05,      /* J =  2 */
(PID.TID 0000.0001)                 1.520997414818001E+05,      /* J =  3 */
(PID.TID 0000.0001)                 1.808798091874300E+05,      /* J =  4 */
(PID.TID 0000.0001)                 2.087786486446736E+05,      /* J =  5 */
(PID.TID 0000.0001)                 2.356603395120766E+05,      /* J =  6 */
(PID.TID 0000.0001)                 2.613939168938713E+05,      /* J =  7 */
(PID.TID 0000.0001)                 2.858540093877838E+05,      /* J =  8 */
(PID.TID 0000.0001)                 3.089214498819035E+05,      /* J =  9 */
(PID.TID 0000.0001)                 3.304838561248741E+05,      /* J = 10 */
(PID.TID 0000.0001)                 3.504361782409254E+05,      /* J = 11 */
(PID.TID 0000.0001)                 3.686812105223083E+05,      /* J = 12 */
(PID.TID 0000.0001)                 3.851300650057322E+05,      /* J = 13 */
(PID.TID 0000.0001)                 3.997026045255871E+05,      /* J = 14 */
(PID.TID 0000.0001)                 4.123278331341585E+05,      /* J = 15 */
(PID.TID 0000.0001)                 4.229442419867491E+05,      /* J = 16 */
(PID.TID 0000.0001)                 4.315001090065869E+05,      /* J = 17 */
(PID.TID 0000.0001)                 4.379537508695839E+05,      /* J = 18 */
(PID.TID 0000.0001)                 4.422737260813013E+05,      /* J = 19 */
(PID.TID 0000.0001)     2 @  4.444389881567501E+05,             /* J = 20: 21 */
(PID.TID 0000.0001)                 4.422737260813013E+05,      /* J = 22 */
(PID.TID 0000.0001)                 4.379537508695839E+05,      /* J = 23 */
(PID.TID 0000.0001)                 4.315001090065869E+05,      /* J = 24 */
(PID.TID 0000.0001)                 4.229442419867491E+05,      /* J = 25 */
(PID.TID 0000.0001)                 4.123278331341585E+05,      /* J = 26 */
(PID.TID 0000.0001)                 3.997026045255871E+05,      /* J = 27 */
(PID.TID 0000.0001)                 3.851300650057322E+05,      /* J = 28 */
(PID.TID 0000.0001)                 3.686812105223083E+05,      /* J = 29 */
(PID.TID 0000.0001)                 3.504361782409254E+05,      /* J = 30 */
(PID.TID 0000.0001)                 3.304838561248741E+05,      /* J = 31 */
(PID.TID 0000.0001)                 3.089214498819035E+05,      /* J = 32 */
(PID.TID 0000.0001)                 2.858540093877838E+05,      /* J = 33 */
(PID.TID 0000.0001)                 2.613939168938713E+05,      /* J = 34 */
(PID.TID 0000.0001)                 2.356603395120766E+05,      /* J = 35 */
(PID.TID 0000.0001)                 2.087786486446736E+05,      /* J = 36 */
(PID.TID 0000.0001)                 1.808798091874300E+05,      /* J = 37 */
(PID.TID 0000.0001)                 1.520997414818001E+05,      /* J = 38 */
(PID.TID 0000.0001)                 1.225786591246834E+05,      /* J = 39 */
(PID.TID 0000.0001)                 9.246038586187513E+04       /* J = 40 */
(PID.TID 0000.0001)     ;
(PID.TID 0000.0001) dyF =  /* dyF(:,1,:,1) ( m - cartesian, degrees - spherical ) */
(PID.TID 0000.0001)    90 @  4.447098934081552E+05              /* I =  1: 90 */
(PID.TID 0000.0001)     ;
(PID.TID 0000.0001) dyF =  /* dyF(1,:,1,:) ( m - cartesian, degrees - spherical ) */
(PID.TID 0000.0001)    40 @  4.447098934081552E+05              /* J =  1: 40 */
(PID.TID 0000.0001)     ;
(PID.TID 0000.0001) dxG =  /* dxG(:,1,:,1) ( m - cartesian, degrees - spherical ) */
(PID.TID 0000.0001)    90 @  7.722306258078101E+04              /* I =  1: 90 */
(PID.TID 0000.0001)     ;
(PID.TID 0000.0001) dxG =  /* dxG(1,:,1,:) ( m - cartesian, degrees - spherical ) */
(PID.TID 0000.0001)                 7.722306258078101E+04,      /* J =  1 */
(PID.TID 0000.0001)                 1.075850604052271E+05,      /* J =  2 */
(PID.TID 0000.0001)                 1.374229146297914E+05,      /* J =  3 */
(PID.TID 0000.0001)                 1.665912582279823E+05,      /* J =  4 */
(PID.TID 0000.0001)                 1.949479859617814E+05,      /* J =  5 */
(PID.TID 0000.0001)                 2.223549467040776E+05,      /* J =  6 */
(PID.TID 0000.0001)                 2.486786164970726E+05,      /* J =  7 */
(PID.TID 0000.0001)                 2.737907490675810E+05,      /* J =  8 */
(PID.TID 0000.0001)                 2.975690006299820E+05,      /* J =  9 */
(PID.TID 0000.0001)                 3.198975259328452E+05,      /* J = 10 */
(PID.TID 0000.0001)                 3.406675426453503E+05,      /* J = 11 */
(PID.TID 0000.0001)                 3.597778613338689E+05,      /* J = 12 */
(PID.TID 0000.0001)                 3.771353784467131E+05,      /* J = 13 */
(PID.TID 0000.0001)                 3.926555299052806E+05,      /* J = 14 */
(PID.TID 0000.0001)                 4.062627030917454E+05,      /* J = 15 */
(PID.TID 0000.0001)                 4.178906052261313E+05,      /* J = 16 */
(PID.TID 0000.0001)                 4.274825863380723E+05,      /* J = 17 */
(PID.TID 0000.0001)                 4.349919152597734E+05,      /* J = 18 */
(PID.TID 0000.0001)                 4.403820072955634E+05,      /* J = 19 */
(PID.TID 0000.0001)                 4.436266024588540E+05,      /* J = 20 */
(PID.TID 0000.0001)                 4.447098934081552E+05,      /* J = 21 */
(PID.TID 0000.0001)                 4.436266024588540E+05,      /* J = 22 */
(PID.TID 0000.0001)                 4.403820072955634E+05,      /* J = 23 */
(PID.TID 0000.0001)                 4.349919152597734E+05,      /* J = 24 */
(PID.TID 0000.0001)                 4.274825863380723E+05,      /* J = 25 */
(PID.TID 0000.0001)                 4.178906052261313E+05,      /* J = 26 */
(PID.TID 0000.0001)                 4.062627030917454E+05,      /* J = 27 */
(PID.TID 0000.0001)                 3.926555299052806E+05,      /* J = 28 */
(PID.TID 0000.0001)                 3.771353784467131E+05,      /* J = 29 */
(PID.TID 0000.0001)                 3.597778613338689E+05,      /* J = 30 */
(PID.TID 0000.0001)                 3.406675426453503E+05,      /* J = 31 */
(PID.TID 0000.0001)                 3.198975259328452E+05,      /* J = 32 */
(PID.TID 0000.0001)                 2.975690006299820E+05,      /* J = 33 */
(PID.TID 0000.0001)                 2.737907490675810E+05,      /* J = 34 */
(PID.TID 0000.0001)                 2.486786164970726E+05,      /* J = 35 */
(PID.TID 0000.0001)                 2.223549467040776E+05,      /* J = 36 */
(PID.TID 0000.0001)                 1.949479859617814E+05,      /* J = 37 */
(PID.TID 0000.0001)                 1.665912582279823E+05,      /* J = 38 */
(PID.TID 0000.0001)                 1.374229146297914E+05,      /* J = 39 */
(PID.TID 0000.0001)                 1.075850604052271E+05       /* J = 40 */
(PID.TID 0000.0001)     ;
(PID.TID 0000.0001) dyG =  /* dyG(:,1,:,1) ( m - cartesian, degrees - spherical ) */
(PID.TID 0000.0001)    90 @  4.447098934081552E+05              /* I =  1: 90 */
(PID.TID 0000.0001)     ;
(PID.TID 0000.0001) dyG =  /* dyG(1,:,1,:) ( m - cartesian, degrees - spherical ) */
(PID.TID 0000.0001)    40 @  4.447098934081552E+05              /* J =  1: 40 */
(PID.TID 0000.0001)     ;
(PID.TID 0000.0001) dxC =  /* dxC(:,1,:,1) ( m - cartesian, degrees - spherical ) */
(PID.TID 0000.0001)    90 @  9.246038586187513E+04              /* I =  1: 90 */
(PID.TID 0000.0001)     ;
(PID.TID 0000.0001) dxC =  /* dxC(1,:,1,:) ( m - cartesian, degrees - spherical ) */
(PID.TID 0000.0001)                 9.246038586187513E+04,      /* J =  1 */
(PID.TID 0000.0001)                 1.225786591246834E+05,      /* J =  2 */
(PID.TID 0000.0001)                 1.520997414818001E+05,      /* J =  3 */
(PID.TID 0000.0001)                 1.808798091874300E+05,      /* J =  4 */
(PID.TID 0000.0001)                 2.087786486446736E+05,      /* J =  5 */
(PID.TID 0000.0001)                 2.356603395120766E+05,      /* J =  6 */
(PID.TID 0000.0001)                 2.613939168938713E+05,      /* J =  7 */
(PID.TID 0000.0001)                 2.858540093877838E+05,      /* J =  8 */
(PID.TID 0000.0001)                 3.089214498819035E+05,      /* J =  9 */
(PID.TID 0000.0001)                 3.304838561248741E+05,      /* J = 10 */
(PID.TID 0000.0001)                 3.504361782409254E+05,      /* J = 11 */
(PID.TID 0000.0001)                 3.686812105223083E+05,      /* J = 12 */
(PID.TID 0000.0001)                 3.851300650057322E+05,      /* J = 13 */
(PID.TID 0000.0001)                 3.997026045255871E+05,      /* J = 14 */
(PID.TID 0000.0001)                 4.123278331341585E+05,      /* J = 15 */
(PID.TID 0000.0001)                 4.229442419867491E+05,      /* J = 16 */
(PID.TID 0000.0001)                 4.315001090065869E+05,      /* J = 17 */
(PID.TID 0000.0001)                 4.379537508695839E+05,      /* J = 18 */
(PID.TID 0000.0001)                 4.422737260813013E+05,      /* J = 19 */
(PID.TID 0000.0001)     2 @  4.444389881567501E+05,             /* J = 20: 21 */
(PID.TID 0000.0001)                 4.422737260813013E+05,      /* J = 22 */
(PID.TID 0000.0001)                 4.379537508695839E+05,      /* J = 23 */
(PID.TID 0000.0001)                 4.315001090065869E+05,      /* J = 24 */
(PID.TID 0000.0001)                 4.229442419867491E+05,      /* J = 25 */
(PID.TID 0000.0001)                 4.123278331341585E+05,      /* J = 26 */
(PID.TID 0000.0001)                 3.997026045255871E+05,      /* J = 27 */
(PID.TID 0000.0001)                 3.851300650057322E+05,      /* J = 28 */
(PID.TID 0000.0001)                 3.686812105223083E+05,      /* J = 29 */
(PID.TID 0000.0001)                 3.504361782409254E+05,      /* J = 30 */
(PID.TID 0000.0001)                 3.304838561248741E+05,      /* J = 31 */
(PID.TID 0000.0001)                 3.089214498819035E+05,      /* J = 32 */
(PID.TID 0000.0001)                 2.858540093877838E+05,      /* J = 33 */
(PID.TID 0000.0001)                 2.613939168938713E+05,      /* J = 34 */
(PID.TID 0000.0001)                 2.356603395120766E+05,      /* J = 35 */
(PID.TID 0000.0001)                 2.087786486446736E+05,      /* J = 36 */
(PID.TID 0000.0001)                 1.808798091874300E+05,      /* J = 37 */
(PID.TID 0000.0001)                 1.520997414818001E+05,      /* J = 38 */
(PID.TID 0000.0001)                 1.225786591246834E+05,      /* J = 39 */
(PID.TID 0000.0001)                 9.246038586187513E+04       /* J = 40 */
(PID.TID 0000.0001)     ;
(PID.TID 0000.0001) dyC =  /* dyC(:,1,:,1) ( m - cartesian, degrees - spherical ) */
(PID.TID 0000.0001)    90 @  4.447098934081552E+05              /* I =  1: 90 */
(PID.TID 0000.0001)     ;
(PID.TID 0000.0001) dyC =  /* dyC(1,:,1,:) ( m - cartesian, degrees - spherical ) */
(PID.TID 0000.0001)    40 @  4.447098934081552E+05              /* J =  1: 40 */
(PID.TID 0000.0001)     ;
(PID.TID 0000.0001) dxV =  /* dxV(:,1,:,1) ( m - cartesian, degrees - spherical ) */
(PID.TID 0000.0001)    90 @  7.722306258078101E+04              /* I =  1: 90 */
(PID.TID 0000.0001)     ;
(PID.TID 0000.0001) dxV =  /* dxV(1,:,1,:) ( m - cartesian, degrees - spherical ) */
(PID.TID 0000.0001)                 7.722306258078101E+04,      /* J =  1 */
(PID.TID 0000.0001)                 1.075850604052271E+05,      /* J =  2 */
(PID.TID 0000.0001)                 1.374229146297914E+05,      /* J =  3 */
(PID.TID 0000.0001)                 1.665912582279823E+05,      /* J =  4 */
(PID.TID 0000.0001)                 1.949479859617814E+05,      /* J =  5 */
(PID.TID 0000.0001)                 2.223549467040776E+05,      /* J =  6 */
(PID.TID 0000.0001)                 2.486786164970726E+05,      /* J =  7 */
(PID.TID 0000.0001)                 2.737907490675810E+05,      /* J =  8 */
(PID.TID 0000.0001)                 2.975690006299820E+05,      /* J =  9 */
(PID.TID 0000.0001)                 3.198975259328452E+05,      /* J = 10 */
(PID.TID 0000.0001)                 3.406675426453503E+05,      /* J = 11 */
(PID.TID 0000.0001)                 3.597778613338689E+05,      /* J = 12 */
(PID.TID 0000.0001)                 3.771353784467131E+05,      /* J = 13 */
(PID.TID 0000.0001)                 3.926555299052806E+05,      /* J = 14 */
(PID.TID 0000.0001)                 4.062627030917454E+05,      /* J = 15 */
(PID.TID 0000.0001)                 4.178906052261313E+05,      /* J = 16 */
(PID.TID 0000.0001)                 4.274825863380723E+05,      /* J = 17 */
(PID.TID 0000.0001)                 4.349919152597734E+05,      /* J = 18 */
(PID.TID 0000.0001)                 4.403820072955634E+05,      /* J = 19 */
(PID.TID 0000.0001)                 4.436266024588540E+05,      /* J = 20 */
(PID.TID 0000.0001)                 4.447098934081552E+05,      /* J = 21 */
(PID.TID 0000.0001)                 4.436266024588540E+05,      /* J = 22 */
(PID.TID 0000.0001)                 4.403820072955634E+05,      /* J = 23 */
(PID.TID 0000.0001)                 4.349919152597734E+05,      /* J = 24 */
(PID.TID 0000.0001)                 4.274825863380723E+05,      /* J = 25 */
(PID.TID 0000.0001)                 4.178906052261313E+05,      /* J = 26 */
(PID.TID 0000.0001)                 4.062627030917454E+05,      /* J = 27 */
(PID.TID 0000.0001)                 3.926555299052806E+05,      /* J = 28 */
(PID.TID 0000.0001)                 3.771353784467131E+05,      /* J = 29 */
(PID.TID 0000.0001)                 3.597778613338689E+05,      /* J = 30 */
(PID.TID 0000.0001)                 3.406675426453503E+05,      /* J = 31 */
(PID.TID 0000.0001)                 3.198975259328452E+05,      /* J = 32 */
(PID.TID 0000.0001)                 2.975690006299820E+05,      /* J = 33 */
(PID.TID 0000.0001)                 2.737907490675810E+05,      /* J = 34 */
(PID.TID 0000.0001)                 2.486786164970726E+05,      /* J = 35 */
(PID.TID 0000.0001)                 2.223549467040776E+05,      /* J = 36 */
(PID.TID 0000.0001)                 1.949479859617814E+05,      /* J = 37 */
(PID.TID 0000.0001)                 1.665912582279823E+05,      /* J = 38 */
(PID.TID 0000.0001)                 1.374229146297914E+05,      /* J = 39 */
(PID.TID 0000.0001)                 1.075850604052271E+05       /* J = 40 */
(PID.TID 0000.0001)     ;
(PID.TID 0000.0001) dyU =  /* dyU(:,1,:,1) ( m - cartesian, degrees - spherical ) */
(PID.TID 0000.0001)    90 @  4.447098934081552E+05              /* I =  1: 90 */
(PID.TID 0000.0001)     ;
(PID.TID 0000.0001) dyU =  /* dyU(1,:,1,:) ( m - cartesian, degrees - spherical ) */
(PID.TID 0000.0001)    40 @  4.447098934081552E+05              /* J =  1: 40 */
(PID.TID 0000.0001)     ;
(PID.TID 0000.0001) rA =  /* rA(:,1,:,1) ( m - cartesian, degrees - spherical ) */
(PID.TID 0000.0001)    90 @  4.110969866729054E+10              /* I =  1: 90 */
(PID.TID 0000.0001)     ;
(PID.TID 0000.0001) rA =  /* rA(1,:,1,:) ( m - cartesian, degrees - spherical ) */
(PID.TID 0000.0001)                 4.110969866729054E+10,      /* J =  1 */
(PID.TID 0000.0001)                 5.450087291636668E+10,      /* J =  2 */
(PID.TID 0000.0001)                 6.762652439100243E+10,      /* J =  3 */
(PID.TID 0000.0001)                 8.042270623659999E+10,      /* J =  4 */
(PID.TID 0000.0001)                 9.282707674147508E+10,      /* J =  5 */
(PID.TID 0000.0001)                 1.047792030594103E+11,      /* J =  6 */
(PID.TID 0000.0001)                 1.162208556324092E+11,      /* J =  7 */
(PID.TID 0000.0001)                 1.270962918792467E+11,      /* J =  8 */
(PID.TID 0000.0001)                 1.373525277677230E+11,      /* J =  9 */
(PID.TID 0000.0001)                 1.469395959475425E+11,      /* J = 10 */
(PID.TID 0000.0001)                 1.558107891862221E+11,      /* J = 11 */
(PID.TID 0000.0001)                 1.639228879220325E+11,      /* J = 12 */
(PID.TID 0000.0001)                 1.712363708253575E+11,      /* J = 13 */
(PID.TID 0000.0001)                 1.777156073426414E+11,      /* J = 14 */
(PID.TID 0000.0001)                 1.833290312848624E+11,      /* J = 15 */
(PID.TID 0000.0001)                 1.880492946148330E+11,      /* J = 16 */
(PID.TID 0000.0001)                 1.918534006840893E+11,      /* J = 17 */
(PID.TID 0000.0001)                 1.947228162702492E+11,      /* J = 18 */
(PID.TID 0000.0001)                 1.966435618690094E+11,      /* J = 19 */
(PID.TID 0000.0001)                 1.976062798008855E+11,      /* J = 20 */
(PID.TID 0000.0001)                 1.976062798008856E+11,      /* J = 21 */
(PID.TID 0000.0001)                 1.966435618690094E+11,      /* J = 22 */
(PID.TID 0000.0001)                 1.947228162702492E+11,      /* J = 23 */
(PID.TID 0000.0001)                 1.918534006840893E+11,      /* J = 24 */
(PID.TID 0000.0001)                 1.880492946148330E+11,      /* J = 25 */
(PID.TID 0000.0001)                 1.833290312848623E+11,      /* J = 26 */
(PID.TID 0000.0001)                 1.777156073426414E+11,      /* J = 27 */
(PID.TID 0000.0001)                 1.712363708253574E+11,      /* J = 28 */
(PID.TID 0000.0001)                 1.639228879220325E+11,      /* J = 29 */
(PID.TID 0000.0001)                 1.558107891862220E+11,      /* J = 30 */
(PID.TID 0000.0001)                 1.469395959475424E+11,      /* J = 31 */
(PID.TID 0000.0001)                 1.373525277677230E+11,      /* J = 32 */
(PID.TID 0000.0001)                 1.270962918792467E+11,      /* J = 33 */
(PID.TID 0000.0001)                 1.162208556324095E+11,      /* J = 34 */
(PID.TID 0000.0001)                 1.047792030594104E+11,      /* J = 35 */
(PID.TID 0000.0001)                 9.282707674147527E+10,      /* J = 36 */
(PID.TID 0000.0001)                 8.042270623660011E+10,      /* J = 37 */
(PID.TID 0000.0001)                 6.762652439100233E+10,      /* J = 38 */
(PID.TID 0000.0001)                 5.450087291636658E+10,      /* J = 39 */
(PID.TID 0000.0001)                 4.110969866729044E+10       /* J = 40 */
(PID.TID 0000.0001)     ;
(PID.TID 0000.0001) rAw =  /* rAw(:,1,:,1) ( m - cartesian, degrees - spherical ) */
(PID.TID 0000.0001)    90 @  4.110969866729054E+10              /* I =  1: 90 */
(PID.TID 0000.0001)     ;
(PID.TID 0000.0001) rAw =  /* rAw(1,:,1,:) ( m - cartesian, degrees - spherical ) */
(PID.TID 0000.0001)                 4.110969866729054E+10,      /* J =  1 */
(PID.TID 0000.0001)                 5.450087291636668E+10,      /* J =  2 */
(PID.TID 0000.0001)                 6.762652439100243E+10,      /* J =  3 */
(PID.TID 0000.0001)                 8.042270623659999E+10,      /* J =  4 */
(PID.TID 0000.0001)                 9.282707674147508E+10,      /* J =  5 */
(PID.TID 0000.0001)                 1.047792030594103E+11,      /* J =  6 */
(PID.TID 0000.0001)                 1.162208556324092E+11,      /* J =  7 */
(PID.TID 0000.0001)                 1.270962918792467E+11,      /* J =  8 */
(PID.TID 0000.0001)                 1.373525277677230E+11,      /* J =  9 */
(PID.TID 0000.0001)                 1.469395959475425E+11,      /* J = 10 */
(PID.TID 0000.0001)                 1.558107891862221E+11,      /* J = 11 */
(PID.TID 0000.0001)                 1.639228879220325E+11,      /* J = 12 */
(PID.TID 0000.0001)                 1.712363708253575E+11,      /* J = 13 */
(PID.TID 0000.0001)                 1.777156073426414E+11,      /* J = 14 */
(PID.TID 0000.0001)                 1.833290312848624E+11,      /* J = 15 */
(PID.TID 0000.0001)                 1.880492946148330E+11,      /* J = 16 */
(PID.TID 0000.0001)                 1.918534006840893E+11,      /* J = 17 */
(PID.TID 0000.0001)                 1.947228162702492E+11,      /* J = 18 */
(PID.TID 0000.0001)                 1.966435618690094E+11,      /* J = 19 */
(PID.TID 0000.0001)                 1.976062798008855E+11,      /* J = 20 */
(PID.TID 0000.0001)                 1.976062798008856E+11,      /* J = 21 */
(PID.TID 0000.0001)                 1.966435618690094E+11,      /* J = 22 */
(PID.TID 0000.0001)                 1.947228162702492E+11,      /* J = 23 */
(PID.TID 0000.0001)                 1.918534006840893E+11,      /* J = 24 */
(PID.TID 0000.0001)                 1.880492946148330E+11,      /* J = 25 */
(PID.TID 0000.0001)                 1.833290312848623E+11,      /* J = 26 */
(PID.TID 0000.0001)                 1.777156073426414E+11,      /* J = 27 */
(PID.TID 0000.0001)                 1.712363708253574E+11,      /* J = 28 */
(PID.TID 0000.0001)                 1.639228879220325E+11,      /* J = 29 */
(PID.TID 0000.0001)                 1.558107891862220E+11,      /* J = 30 */
(PID.TID 0000.0001)                 1.469395959475424E+11,      /* J = 31 */
(PID.TID 0000.0001)                 1.373525277677230E+11,      /* J = 32 */
(PID.TID 0000.0001)                 1.270962918792467E+11,      /* J = 33 */
(PID.TID 0000.0001)                 1.162208556324095E+11,      /* J = 34 */
(PID.TID 0000.0001)                 1.047792030594104E+11,      /* J = 35 */
(PID.TID 0000.0001)                 9.282707674147527E+10,      /* J = 36 */
(PID.TID 0000.0001)                 8.042270623660011E+10,      /* J = 37 */
(PID.TID 0000.0001)                 6.762652439100233E+10,      /* J = 38 */
(PID.TID 0000.0001)                 5.450087291636658E+10,      /* J = 39 */
(PID.TID 0000.0001)                 4.110969866729044E+10       /* J = 40 */
(PID.TID 0000.0001)     ;
(PID.TID 0000.0001) rAs =  /* rAs(:,1,:,1) ( m - cartesian, degrees - spherical ) */
(PID.TID 0000.0001)    90 @  3.433488626798236E+10              /* I =  1: 90 */
(PID.TID 0000.0001)     ;
(PID.TID 0000.0001) rAs =  /* rAs(1,:,1,:) ( m - cartesian, degrees - spherical ) */
(PID.TID 0000.0001)                 3.433488626798236E+10,      /* J =  1 */
(PID.TID 0000.0001)                 4.783442523123635E+10,      /* J =  2 */
(PID.TID 0000.0001)                 6.110091968306405E+10,      /* J =  3 */
(PID.TID 0000.0001)                 7.406973659603827E+10,      /* J =  4 */
(PID.TID 0000.0001)                 8.667769319778091E+10,      /* J =  5 */
(PID.TID 0000.0001)                 9.886336479107472E+10,      /* J =  6 */
(PID.TID 0000.0001)                 1.105673840088174E+11,      /* J =  7 */
(PID.TID 0000.0001)                 1.217327300458637E+11,      /* J =  8 */
(PID.TID 0000.0001)                 1.323050064586579E+11,      /* J =  9 */
(PID.TID 0000.0001)                 1.422327061792379E+11,      /* J = 10 */
(PID.TID 0000.0001)                 1.514674624524945E+11,      /* J = 11 */
(PID.TID 0000.0001)                 1.599642844741385E+11,      /* J = 12 */
(PID.TID 0000.0001)                 1.676817765813787E+11,      /* J = 13 */
(PID.TID 0000.0001)                 1.745823399284268E+11,      /* J = 14 */
(PID.TID 0000.0001)                 1.806323556642997E+11,      /* J = 15 */
(PID.TID 0000.0001)                 1.858023487204767E+11,      /* J = 16 */
(PID.TID 0000.0001)                 1.900671314104744E+11,      /* J = 17 */
(PID.TID 0000.0001)                 1.934059261417216E+11,      /* J = 18 */
(PID.TID 0000.0001)                 1.958024666419019E+11,      /* J = 19 */
(PID.TID 0000.0001)                 1.972450772065981E+11,      /* J = 20 */
(PID.TID 0000.0001)                 1.977267295821495E+11,      /* J = 21 */
(PID.TID 0000.0001)                 1.972450772065981E+11,      /* J = 22 */
(PID.TID 0000.0001)                 1.958024666419019E+11,      /* J = 23 */
(PID.TID 0000.0001)                 1.934059261417216E+11,      /* J = 24 */
(PID.TID 0000.0001)                 1.900671314104744E+11,      /* J = 25 */
(PID.TID 0000.0001)                 1.858023487204767E+11,      /* J = 26 */
(PID.TID 0000.0001)                 1.806323556642997E+11,      /* J = 27 */
(PID.TID 0000.0001)                 1.745823399284267E+11,      /* J = 28 */
(PID.TID 0000.0001)                 1.676817765813788E+11,      /* J = 29 */
(PID.TID 0000.0001)                 1.599642844741386E+11,      /* J = 30 */
(PID.TID 0000.0001)                 1.514674624524945E+11,      /* J = 31 */
(PID.TID 0000.0001)                 1.422327061792377E+11,      /* J = 32 */
(PID.TID 0000.0001)                 1.323050064586577E+11,      /* J = 33 */
(PID.TID 0000.0001)                 1.217327300458638E+11,      /* J = 34 */
(PID.TID 0000.0001)                 1.105673840088174E+11,      /* J = 35 */
(PID.TID 0000.0001)                 9.886336479107451E+10,      /* J = 36 */
(PID.TID 0000.0001)                 8.667769319778070E+10,      /* J = 37 */
(PID.TID 0000.0001)                 7.406973659603806E+10,      /* J = 38 */
(PID.TID 0000.0001)                 6.110091968306404E+10,      /* J = 39 */
(PID.TID 0000.0001)                 4.783442523123634E+10       /* J = 40 */
(PID.TID 0000.0001)     ;
(PID.TID 0000.0001) 
 ph-pack: unpacking ecco_ctrl
(PID.TID 0000.0001)  MDSREADFIELD_GL: opening file: hFacC.001.001.data
(PID.TID 0000.0001)  MDSREADFIELD_GL: opening file: xx_theta.0000000000.001.001.data
(PID.TID 0000.0001)  MDSREADFIELD_GL: opening file: hFacC.001.001.data
(PID.TID 0000.0001)  MDSREADFIELD_GL: opening file: xx_salt.0000000000.001.001.data
(PID.TID 0000.0001)  MDSREADFIELD_GL: opening file: hFacC.001.001.data
(PID.TID 0000.0001)  MDSREADFIELD_GL: opening file: xx_hflux.0000000000.001.001.data
(PID.TID 0000.0001)  MDSREADFIELD_GL: opening file: hFacC.001.001.data
(PID.TID 0000.0001)  MDSREADFIELD_GL: opening file: xx_sflux.0000000000.001.001.data
(PID.TID 0000.0001)  MDSREADFIELD_GL: opening file: maskW.001.001.data
(PID.TID 0000.0001)  MDSREADFIELD_GL: opening file: xx_tauu.0000000000.001.001.data
(PID.TID 0000.0001)  MDSREADFIELD_GL: opening file: maskS.001.001.data
(PID.TID 0000.0001)  MDSREADFIELD_GL: opening file: xx_tauv.0000000000.001.001.data
(PID.TID 0000.0001)  MDSREADFIELD_GL: opening file: hFacC.001.001.data
(PID.TID 0000.0001)  MDSREADFIELD_GL: opening file: xx_diffkr.0000000000.001.001.data
(PID.TID 0000.0001) %MON fCori_max                    =   1.4226580169407E-04
(PID.TID 0000.0001) %MON fCori_min                    =  -1.4226580169407E-04
(PID.TID 0000.0001) %MON fCori_mean                   =   7.5291817533716E-23
(PID.TID 0000.0001) %MON fCori_sd                     =   9.6335367303778E-05
(PID.TID 0000.0001) %MON fCoriG_max                   =   1.4112379284621E-04
(PID.TID 0000.0001) %MON fCoriG_min                   =  -1.4323448157692E-04
(PID.TID 0000.0001) %MON fCoriG_mean                  =  -3.6726790147928E-06
(PID.TID 0000.0001) %MON fCoriG_sd                    =   9.7510077443652E-05
(PID.TID 0000.0001) %MON fCoriCos_max                 =   1.4535550371427E-04
(PID.TID 0000.0001) %MON fCoriCos_min                 =   3.0239529651320E-05
(PID.TID 0000.0001) %MON fCoriCos_mean                =   1.0260497651149E-04
(PID.TID 0000.0001) %MON fCoriCos_sd                  =   3.6683828681187E-05
(PID.TID 0000.0001) // CG2D normalisation factor =          0.6568267742571170272718184E-04
(PID.TID 0000.0001) 
(PID.TID 0000.0001)  MDSREADFIELD: opening global file: lev_t.bin
(PID.TID 0000.0001) // =======================================================
(PID.TID 0000.0001) // Field Initial Temperature at iteration          1
(PID.TID 0000.0001) // CMIN =         -1.900000000000000E+00
(PID.TID 0000.0001) // CMAX =          2.973338890075684E+01
(PID.TID 0000.0001) // CINT =          1.171606996324327E+00
(PID.TID 0000.0001) // SYMBOLS (CMIN->CMAX): -abcdefghijklmnopqrstuvwxyz+
(PID.TID 0000.0001) //                  0.0: .
(PID.TID 0000.0001) // RANGE I (Lo:Hi:Step):(   1:  90:   1)
(PID.TID 0000.0001) // RANGE J (Lo:Hi:Step):(  40:   1:  -1)
(PID.TID 0000.0001) // RANGE K (Lo:Hi:Step):(   1:   1:   1)
(PID.TID 0000.0001) // =======================================================
(PID.TID 0000.0001) K =   1
(PID.TID 0000.0001)                I=10      I=20      I=30      I=40      I=50      I=60      I=70      I=80      I=90
(PID.TID 0000.0001) |--J--|123456789|123456789|123456789|123456789|123456789|123456789|123456789|123456789|123456789|
(PID.TID 0000.0001)     40 bccdd.baa----abdedd..................................................................bbbbb
(PID.TID 0000.0001)     39 ccdddddccbbbaa...ed.....................................................----........bbbbbb
(PID.TID 0000.0001)     38 fffgfedeedddc...........................................................-----......cbbbcde
(PID.TID 0000.0001)     37 ghh..................................................................bc...bbc...edeed.defg
(PID.TID 0000.0001)     36 hh.........................................ddcb....................dcccbabccdd.eefghhihhih
(PID.TID 0000.0001)     35 hh.................................aaab..dddeddd...ffggg...........ccc....ddeeeffghijjjjih
(PID.TID 0000.0001)     34 ...................................babb.deeeeeee.ffffgghh..................ccdffghijkkkj..
(PID.TID 0000.0001)     33 ....................................accdddeeeeefffffgghhiii.................bcfijkkllllkk.
(PID.TID 0000.0001)     32 ....................................bdddeffgffgghhhhhiiijjj................dccglmnmmmmlll.
(PID.TID 0000.0001)     31 ....................................fghiiiijjjjjjkkkkklllkk..............ikkjjmooooonnmm..
(PID.TID 0000.0001)     30 ...................................mmmnmmmmmmmmmmmmmnnnnnmm............moqrrrqrqqqpppooo..
(PID.TID 0000.0001)     29 .................................pqqqqqpppppppppoppoppppponm...........ssssssrrrrrqqqqpp..
(PID.TID 0000.0001)     28 ...............................prssssrrrsssrrrrrrrrrrrrrqqpoo.........uttssstssrssrrrqqq..
(PID.TID 0000.0001)     27 ..............vv..............stuttuuuuutuuuuuuuuuuttttssrrqqq...stuu.vvvuuuuutttttsss....
(PID.TID 0000.0001)     26 ..............vvv...........uuvvvvvwwwwwwwwvvvvvvvvvuuutttsssttv.uuvxxwwwwwwvvvvuuttsr....
(PID.TID 0000.0001)     25 ..............wwwx...xxx...vvvxxxxxyyxxxxxxxxxwwwwwvvvvvuuuuuvwwx...xxxxxxwwwwwwvvutsr....
(PID.TID 0000.0001)     24 ............wwwwxyy.xxyy...wxx.yyyyyyyyyyyxxxxxxxxwwwwwwwvvwwxxyywww.xxxxxxxxxxwwwvvur....
(PID.TID 0000.0001)     23 ............xxxyyyz.xyyy...xxx..yyyyzzyyyyyyyyxxxxxxxxxwwwwwxxxwwwwwx....vwxxxxwwwwwvu....
(PID.TID 0000.0001)     22 w...........xxyyyzyyyyyz...xx.yyzzzzzzzzzzzzzyyzyyyyyyxxwwxxxxwvvvwwxw......yyyyxxxxxxwxxw
(PID.TID 0000.0001)     21 xxx........xxxxyyzzzzzzz+.....zyzzzzzzz++zzzzyyyyyyyyxxwvvwwwwvvvvvvvu........yyyyyyyyyxxx
(PID.TID 0000.0001)     20 xww.......xyyyyxyyzzzzzz+......z.zzzzz+++zzzzzzyyyyyxxxxwvwxwvuuuuuuut.........yyyyxxxxwww
(PID.TID 0000.0001)     19 vvv.......yyyyxwwxyzyyzzzzz...zzz.....++++++z++z+zzzyyyyxxxxwwvvvvvvvu...........yyxxxwwww
(PID.TID 0000.0001)     18 uut.......zzyyywwxyzyyyyzzyzzzzzz...z+z++++zz+++++++zzzyyyyxxwwwvvvvvtt..........yyxxwvvwv
(PID.TID 0000.0001)     17 uus.......z.yyyyyyxyzzyyyyyyyzz.....yzzzzzzzzzzzzzzzzzzyyyyxxwwvuuvvuut.........yyyxxwttvu
(PID.TID 0000.0001)     16 utr......yy.zyyyyxxxxxxxwxxxxy.......yyyyyyyyyyyyyyyyyyyyyyyxxwvvvuuutts........xyyyxwvuuu
(PID.TID 0000.0001)     15 ttrr....xxx.xxxwxwwwwvwwvvvww.........xwxxxxxxxxxxxxxxxxxyyyxwwwvvuttssrr......wxxxxxwwvuu
(PID.TID 0000.0001)     14 ttsq....xyxwwxwvwwwvutuuuuuuu.........wwvwwwwvwvvwwwvwvvwwwwwwvvvuuutssrr.....vwwwwwwwvvvu
(PID.TID 0000.0001)     13 tttr....wwwvvvtttuuuutttssttt.........vvvuuuuuuutttttuuuuuvwwwuuuttttssrr....uvvvvvvvvvvut
(PID.TID 0000.0001)     12 sssssstttutssssrrrrrstrqqrrssqqrrq....uuttssssrrrrrrrrrrrstttssssrssrrqp.....uuuttssttssss
(PID.TID 0000.0001)     11 poprsssrqqqqqrqppooopqpoppppppppppp..sssrrr.rqpppqqqqppppqqqoppqqqqrqqpp....prsrqqqqqppppq
(PID.TID 0000.0001)     10 lllmoooonmnnmnnnnmmmmmmlmmlllmnnnnon.qqqppp.ppppppooooooooonmnnnonnooooo..nmoponnmnnnnnmll
(PID.TID 0000.0001)      9 ihhiiiihhhhhhiiihiiiiihhhiiiijjkkmnllnnnnn.mmmmnnnnmmmmnnmmlklllllklllll.mllmmllkjiijjihhi
(PID.TID 0000.0001)      8 eeeeeeeedefgggffeeffggffffggghiiiijjijklklkkkkkkkklllkkkkjjiiijkjjjjjjkj.kkjjiihggffffedde
(PID.TID 0000.0001)      7 cccccddeedddefeddddddddddefeefffffgggghiiiiiijjjihhgggghhhhhghhhhhhhiiiihiihhgfeddddddcccc
(PID.TID 0000.0001)      6 abbcccddcccccdddddccdddddddccddddddeeeeffggggghhgeddddddeeeeeeefggggghggggffeedccbbbbbbbba
(PID.TID 0000.0001)      5 bbbcccccccccccccccccccccbbccccdddddddcccddeeddeedcbbbbbbccccccdddeeeeeddddddccbbbbaaaaaaab
(PID.TID 0000.0001)      4 bbbbbbbaaabbbbbbbbbbbbaabbabbbbcbbbbbbbbbbbbbbbbbbbabbaaabbbbbbbbbbbbbbbbb..a--aaabbbaaabb
(PID.TID 0000.0001)      3 bbbbaaa-a-............................bbaaaaaaaaaaaaaaaaaaaaaaaaaaaaaaaab..aaaaaaaabbbaaaa
(PID.TID 0000.0001)      2 ..........................................baaaaaaaaaaaa-------aa..aaaa.....aaaaaaaaaaaa...
(PID.TID 0000.0001)      1 ..........................................................................................
(PID.TID 0000.0001) // =======================================================
(PID.TID 0000.0001) // END OF FIELD                                          =
(PID.TID 0000.0001) // =======================================================
(PID.TID 0000.0001) 
(PID.TID 0000.0001)  MDSREADFIELD: opening global file: lev_s.bin
(PID.TID 0000.0001) // =======================================================
(PID.TID 0000.0001) // Field Initial Salinity at iteration          1
(PID.TID 0000.0001) // CMIN =          2.975276947021484E+01
(PID.TID 0000.0001) // CMAX =          3.747562789916992E+01
(PID.TID 0000.0001) // CINT =          2.860317936650029E-01
(PID.TID 0000.0001) // SYMBOLS (CMIN->CMAX): -abcdefghijklmnopqrstuvwxyz+
(PID.TID 0000.0001) //                  0.0: .
(PID.TID 0000.0001) // RANGE I (Lo:Hi:Step):(   1:  90:   1)
(PID.TID 0000.0001) // RANGE J (Lo:Hi:Step):(  40:   1:  -1)
(PID.TID 0000.0001) // RANGE K (Lo:Hi:Step):(   1:   1:   1)
(PID.TID 0000.0001) // =======================================================
(PID.TID 0000.0001) K =   1
(PID.TID 0000.0001)                I=10      I=20      I=30      I=40      I=50      I=60      I=70      I=80      I=90
(PID.TID 0000.0001) |--J--|123456789|123456789|123456789|123456789|123456789|123456789|123456789|123456789|123456789|
(PID.TID 0000.0001)     40 qrrrr.oonnooopqtutt..................................................................mnnop
(PID.TID 0000.0001)     39 rssrrrrrrrqqpn...ut.....................................................mmmm........opqqqr
(PID.TID 0000.0001)     38 ssrrqqqqrrqpo...........................................................lkkll......onoqrrs
(PID.TID 0000.0001)     37 ssr..................................................................hg...lln...qppqr.rrrs
(PID.TID 0000.0001)     36 rr.........................................lkji....................feeegikmoop.pqrssssssss
(PID.TID 0000.0001)     35 rr.................................kkkk..lllllki...jijjj...........aa-....opqrrrrrrrssttss
(PID.TID 0000.0001)     34 ...................................jlll.kklllllk.ijkkkjih..................hlpqrqrrsstts..
(PID.TID 0000.0001)     33 ....................................iklkkkkkkkkkjkkjjjjjjii.................jmprrsstttttt.
(PID.TID 0000.0001)     32 ....................................iklllkllllllllkkkkkkkji................gilpstuuttuuut.
(PID.TID 0000.0001)     31 ....................................lmnonnnnoooonnmmmmllkjj..............loopqtvvvuuuuuu..
(PID.TID 0000.0001)     30 ...................................pppppppqqqqpppoooonnmlkk............ptvxwwvvwvvvvvvvu..
(PID.TID 0000.0001)     29 .................................pqqrqqqqqqrrrqqppqqqpponmll...........vxxxxxxwwwwwxwwxw..
(PID.TID 0000.0001)     28 ...............................prrrrrqqrrrrrsrrsrssssssrqonmm.........wxxxxxxxyyyyyyyyxx..
(PID.TID 0000.0001)     27 ..............xx..............prrrrrrrrrssssssstttssssssrqpoop...uwww.wwxxxyyy++zzzzyy....
(PID.TID 0000.0001)     26 ..............wxx...........ppqrrrrrrsssrrstsstttssrrrrrrrqppqqp.wwwvvwwwwwxyy+++zzyxw....
(PID.TID 0000.0001)     25 ..............wxxv...kkk...ooopqrrrrrssrrrrrrrssssqqpppppppppppoo...vvutuuvvwxyyyxxvvu....
(PID.TID 0000.0001)     24 ............uvvwwur.lmlk...nmm.pqqqqrrrrrqqqqrrqqrpppppooooonmmmnooo.uuuuuuttuvvvuvuut....
(PID.TID 0000.0001)     23 ............vvuvtqp.lmml...mln..ppppqpqppppppqpppppppppqppponnnnnoopm....xvuuuvvvvuuut....
(PID.TID 0000.0001)     22 r...........vuttsqqpnppn...mm.oppqqrrqqqqqqppppqqrrrqqqrrppppoopooomjj......uuvvvvvuttssrr
(PID.TID 0000.0001)     21 qmm........ttsssssssrsqon.....opqqqqqqqrrrrqqqssssssrrrrrrrrpqqqppomll........tvvvvuttssrr
(PID.TID 0000.0001)     20 sqq.......sttssrrsrrrrpol......p.qrqpqrrrrrrrstttttsssrrsssrqrrrrqqqpo.........wwwvvvuuutt
(PID.TID 0000.0001)     19 tsr.......ssssrrrrpppppnmmm...oqq.....qrqqsrrstttuuuttssttssrrssrrrrqq...........wwwvuvvvv
(PID.TID 0000.0001)     18 wut.......ssrrrrrqppppppppoooorrr...poqqqprrrttttuuutuuuuuutttttttutsss..........yyxwwxwxx
(PID.TID 0000.0001)     17 wwu.......s.rrrrrrqppppqqqqqqqr.....rrsrqrsssuusrtuuuvvvwwvvvuuuuutttss.........xyzyyyyxxx
(PID.TID 0000.0001)     16 vvt......ss.qrrssrqrqpqrrrrrrr.......ssrrstsstusrsuuuvwwwwxxwwvvvuttttsr........yz+zzzxwww
(PID.TID 0000.0001)     15 utss....stt.rrssstttsrrsrstsr.........ssstttssttsuuttuvvvvwxwwwwwuttsssrr......xyyyyxyyxwv
(PID.TID 0000.0001)     14 utts....sstrrssstuuuuuuuuuutt.........stttuutttttttuttttttuvvvvvvutsrqrrr.....vxxwwwwxwvwv
(PID.TID 0000.0001)     13 uuut....ttttttttuuuuuvtuuuuuu.........ttttuutttttttuutsssstttttstsqrqqppp....uwwwvuvvvutvv
(PID.TID 0000.0001)     12 ttttttttttttttttttttttssuuuuutuuut....tttttttttttsssssrrrrrrrqqqqqppppoo.....rvvuuttttttuu
(PID.TID 0000.0001)     11 rqsttttttttuuttttsssssrrstttttttsss..ttttts.tsssrrrrqqqqqppppoonnooooooo....oruttttsssrqrs
(PID.TID 0000.0001)     10 pppqrssrqqrqpqrssrrqqqqqqrrrrrrrrrrs.sssssr.rssrrqqpppppppooooonnnoooonn..moqrrrqqqqqqqqqq
(PID.TID 0000.0001)      9 oonooooooooonnnooooooooooppppppqqqqqrrrqrq.pppqqqqqppppppppppoooooooooll.lmoqqqqppooooopoo
(PID.TID 0000.0001)      8 nnnoonooooooonnnnnnnoooonoonoooppopqqqqqqqppopppqqqpppppppppppppppooopon.lnopppoooonnnnooo
(PID.TID 0000.0001)      7 ooooooooooopponnnooooooonnnnnonnooooooooopppppppoooooooooopppppppppoopqnnmnoooonnnonnnnnno
(PID.TID 0000.0001)      6 oooonnoonnnnooooooooooooonnnnnnnnnnnnnnnnoooopppooooooooooooooppppppppppoooooooonnnnnmnnnn
(PID.TID 0000.0001)      5 oooonnnnnnnnnnnnnnnnnoooooonnnnnnonnnnnnnnnoooooooooooonnnnnnooooooopoooonoooonnnnnnnooooo
(PID.TID 0000.0001)      4 oooonnnooonnnnnnnnnnnnnnoooooonnnooooonnnooooooooppponnnnmmmnnnnmnnoonnnnn..nnnooooooooooo
(PID.TID 0000.0001)      3 ooonnnnnnn............................nnoooooonnooooonnnnnnnoonnnnnnnnmmm..ooopooooooooooo
(PID.TID 0000.0001)      2 ..........................................pppooooonnnnnnoooppppo..nnnn.....qqqpppoooooo...
(PID.TID 0000.0001)      1 ..........................................................................................
(PID.TID 0000.0001) // =======================================================
(PID.TID 0000.0001) // END OF FIELD                                          =
(PID.TID 0000.0001) // =======================================================
(PID.TID 0000.0001) 
(PID.TID 0000.0001) Start initial hydrostatic pressure computation
(PID.TID 0000.0001) Pressure is predetermined for buoyancyRelation OCEANIC
(PID.TID 0000.0001) 
(PID.TID 0000.0001)  MDS_WRITE_RL_VEC: irec =  00000001   00066240
(PID.TID 0000.0001)  MDSREADFIELD: opening file: xx_theta.0000000000.001.001.data
(PID.TID 0000.0001)  MDSREADFIELD: opening file: xx_salt.0000000000.001.001.data
(PID.TID 0000.0001)  MDSREADFIELD: opening file: xx_diffkr.0000000000.001.001.data
(PID.TID 0000.0001)  MDSREADFIELD: opening global file: trenberth_taux.bin
(PID.TID 0000.0001)  MDSREADFIELD: opening global file: trenberth_tauy.bin
(PID.TID 0000.0001)  MDSREADFIELD: opening global file: ncep_qnet.bin
(PID.TID 0000.0001)  MDSREADFIELD: opening global file: lev_sst.bin
(PID.TID 0000.0001)  MDSREADFIELD: opening global file: lev_sss.bin
(PID.TID 0000.0001)  MDS_WRITE_RL_VEC: irec =  00000001   00066240
(PID.TID 0000.0001)  MDS_WRITE_RL_VEC: irec =  00000001   00066240
(PID.TID 0000.0001)  MDS_WRITE_RL_VEC: irec =  00000001   00066240
(PID.TID 0000.0001)  MDS_WRITE_RL_VEC: irec =  00000001   00066240
(PID.TID 0000.0001)  MDS_WRITE_RL_VEC: irec =  00000001   00066240
(PID.TID 0000.0001)  MDS_WRITE_RL_VEC: irec =  00000001   00066240
(PID.TID 0000.0001)  MDS_WRITE_RL_VEC: irec =  00000001   00066240
(PID.TID 0000.0001)  MDS_WRITE_RL_VEC: irec =  00000001   00066240
(PID.TID 0000.0001)  MDS_WRITE_RL_VEC: irec =  00000001   00066240
(PID.TID 0000.0001)  MDS_WRITE_RL_VEC: irec =  00000001   00066240
(PID.TID 0000.0001)  MDS_WRITE_RL_VEC: irec =  00000001   00066240
(PID.TID 0000.0001)  MDS_WRITE_RL_VEC: irec =  00000001   00004416
(PID.TID 0000.0001)  MDS_WRITE_RL_VEC: irec =  00000001   00066240
(PID.TID 0000.0001)  MDS_WRITE_RL_VEC: irec =  00000001   00004416
(PID.TID 0000.0001)  MDS_WRITE_RL_VEC: irec =  00000001   00004416
(PID.TID 0000.0001)  MDS_WRITE_RL_VEC: irec =  00000001   00004416
(PID.TID 0000.0001)  MDS_WRITE_RL_VEC: irec =  00000001   00004416
(PID.TID 0000.0001)  MDS_WRITE_RL_VEC: irec =  00000001   00004416
(PID.TID 0000.0001)  MDS_WRITE_RL_VEC: irec =  00000001   00004416
(PID.TID 0000.0001)  MDS_WRITE_RL_VEC: irec =  00000001   00004416
(PID.TID 0000.0001)  MDS_WRITE_RL_VEC: irec =  00000001   00004416
(PID.TID 0000.0001)  MDS_WRITE_RL_VEC: irec =  00000001   00004416
(PID.TID 0000.0001)  MDS_WRITE_RL_VEC: irec =  00000001   00004416
(PID.TID 0000.0001)  MDS_WRITE_RL_VEC: irec =  00000001   00004416
(PID.TID 0000.0001)  MDS_WRITE_RL_VEC: irec =  00000001   00004416
(PID.TID 0000.0001)  MDS_WRITE_RL_VEC: irec =  00000001   00004416
(PID.TID 0000.0001)  MDS_WRITE_RL_VEC: irec =  00000001   00004416
(PID.TID 0000.0001)  MDS_WRITE_RL_VEC: irec =  00000001   00004416
(PID.TID 0000.0001)  MDS_WRITE_RL_VEC: irec =  00000001   00004416
(PID.TID 0000.0001)  MDS_WRITE_RL_VEC: irec =  00000001   00004416
(PID.TID 0000.0001)  MDS_WRITE_RL_VEC: irec =  00000001   00004416
 S/R EXTERNAL_FIELDS_LOAD: Reading new data  0. 0
(PID.TID 0000.0001)  MDSREADFIELD: opening global file: trenberth_taux.bin
(PID.TID 0000.0001)  MDSREADFIELD: opening global file: trenberth_taux.bin
(PID.TID 0000.0001)  MDSREADFIELD: opening global file: trenberth_tauy.bin
(PID.TID 0000.0001)  MDSREADFIELD: opening global file: trenberth_tauy.bin
(PID.TID 0000.0001)  MDSREADFIELD: opening global file: ncep_qnet.bin
(PID.TID 0000.0001)  MDSREADFIELD: opening global file: ncep_qnet.bin
(PID.TID 0000.0001)  MDSREADFIELD: opening global file: lev_sst.bin
(PID.TID 0000.0001)  MDSREADFIELD: opening global file: lev_sst.bin
(PID.TID 0000.0001)  MDSREADFIELD: opening global file: lev_sss.bin
(PID.TID 0000.0001)  MDSREADFIELD: opening global file: lev_sss.bin
time,SST,SSS,fu,fv,Q,E-P,i0,i1,a,b =   0.0000E+00  5.3151E-02  3.4364E+01 -4.0500E-02 -6.3753E-02  2.6510E+02  0.0000E+00    12     1  5.0000E-01  5.0000E-01
time,fu0,fu1,fu =   0.0000E+00 -4.5368E-02 -3.5633E-02 -4.0500E-02  5.0000E-01  5.0000E-01
(PID.TID 0000.0001)  MDSREADFIELD: opening file: xx_tauu.0000000000.001.001.data
(PID.TID 0000.0001)  MDSREADFIELD: opening file: xx_tauv.0000000000.001.001.data
(PID.TID 0000.0001)  MDSREADFIELD: opening file: xx_sflux.0000000000.001.001.data
(PID.TID 0000.0001)  MDSREADFIELD: opening file: xx_hflux.0000000000.001.001.data
 cg2d: Sum(rhs),rhsMax =  -5.55111512312578E-17  2.51126027825716E+00
(PID.TID 0000.0001)                    cg2d_init_res =    6.25921682922720E+00
(PID.TID 0000.0001)                       cg2d_iters =    26
(PID.TID 0000.0001)                         cg2d_res =    4.96600264521541E-14
(PID.TID 0000.0001) // =======================================================
(PID.TID 0000.0001) // Begin MONITOR dynamic field statistics
(PID.TID 0000.0001) // =======================================================
(PID.TID 0000.0001) %MON time_tsnumber                =                     1
(PID.TID 0000.0001) %MON time_secondsf                =   4.3200000000000E+04
(PID.TID 0000.0001) %MON dynstat_eta_max              =   1.7542736336611E-01
(PID.TID 0000.0001) %MON dynstat_eta_min              =  -1.1671969011691E-01
(PID.TID 0000.0001) %MON dynstat_eta_mean             =   2.4292464894384E-18
(PID.TID 0000.0001) %MON dynstat_eta_sd               =   2.6179446472584E-02
(PID.TID 0000.0001) %MON dynstat_eta_del2             =   1.1613846703601E-02
(PID.TID 0000.0001) %MON dynstat_uvel_max             =   8.0529522933638E-03
(PID.TID 0000.0001) %MON dynstat_uvel_min             =  -7.6333376275251E-03
(PID.TID 0000.0001) %MON dynstat_uvel_mean            =  -1.5724926029343E-04
(PID.TID 0000.0001) %MON dynstat_uvel_sd              =   1.2330585789934E-03
(PID.TID 0000.0001) %MON dynstat_uvel_del2            =   4.1962602040880E-04
(PID.TID 0000.0001) %MON dynstat_vvel_max             =   1.8131688035041E-02
(PID.TID 0000.0001) %MON dynstat_vvel_min             =  -1.1104627631651E-02
(PID.TID 0000.0001) %MON dynstat_vvel_mean            =   9.0141408382241E-04
(PID.TID 0000.0001) %MON dynstat_vvel_sd              =   3.3812266152410E-03
(PID.TID 0000.0001) %MON dynstat_vvel_del2            =   5.2106641127852E-04
(PID.TID 0000.0001) %MON dynstat_wvel_max             =   1.5731556153468E-04
(PID.TID 0000.0001) %MON dynstat_wvel_min             =  -1.0461247926497E-04
(PID.TID 0000.0001) %MON dynstat_wvel_mean            =   1.3025862825874E-22
(PID.TID 0000.0001) %MON dynstat_wvel_sd              =   1.6753162012021E-05
(PID.TID 0000.0001) %MON dynstat_wvel_del2            =   8.7872728255397E-06
(PID.TID 0000.0001) %MON dynstat_theta_max            =   2.9714151773427E+01
(PID.TID 0000.0001) %MON dynstat_theta_min            =  -1.9006688327720E+00
(PID.TID 0000.0001) %MON dynstat_theta_mean           =   3.6192176620433E+00
(PID.TID 0000.0001) %MON dynstat_theta_sd             =   4.4160464019401E+00
(PID.TID 0000.0001) %MON dynstat_theta_del2           =   1.5011458051278E-01
(PID.TID 0000.0001) %MON dynstat_salt_max             =   3.7470483222390E+01
(PID.TID 0000.0001) %MON dynstat_salt_min             =   2.9754996047611E+01
(PID.TID 0000.0001) %MON dynstat_salt_mean            =   3.4717966947509E+01
(PID.TID 0000.0001) %MON dynstat_salt_sd              =   2.9615546782177E-01
(PID.TID 0000.0001) %MON dynstat_salt_del2            =   2.6383451191221E-02
(PID.TID 0000.0001) %MON advcfl_uvel_max              =   2.7847836032001E-03
(PID.TID 0000.0001) %MON advcfl_vvel_max              =   1.7613480939469E-03
(PID.TID 0000.0001) %MON advcfl_wvel_max              =   2.5261540324720E-01
(PID.TID 0000.0001) %MON advcfl_W_hf_max              =   2.5633166678463E-01
(PID.TID 0000.0001) %MON pe_b_mean                    =   8.7700510162598E-07
(PID.TID 0000.0001) %MON ke_max                       =   1.2189599970725E-04
(PID.TID 0000.0001) %MON ke_mean                      =   6.1994153670140E-06
(PID.TID 0000.0001) %MON ke_vol                       =   1.3226782436723E+18
(PID.TID 0000.0001) %MON vort_r_min                   =  -6.1330304033498E-08
(PID.TID 0000.0001) %MON vort_r_max                   =   6.1580160380246E-08
(PID.TID 0000.0001) %MON vort_a_mean                  =  -2.5205769360242E-05
(PID.TID 0000.0001) %MON vort_a_sd                    =   7.3403259512185E-05
(PID.TID 0000.0001) %MON vort_p_mean                  =  -3.1758669515642E-05
(PID.TID 0000.0001) %MON vort_p_sd                    =   1.3126622607324E-04
(PID.TID 0000.0001) %MON surfExpan_theta_mean         =   4.5922979108061E-05
(PID.TID 0000.0001) %MON surfExpan_salt_mean          =   3.4898922523556E-06
(PID.TID 0000.0001) // =======================================================
(PID.TID 0000.0001) // End MONITOR dynamic field statistics
(PID.TID 0000.0001) // =======================================================
time,SST,SSS,fu,fv,Q,E-P,i0,i1,a,b =   4.3200E+04  8.3327E-02  3.4375E+01 -4.0338E-02 -6.3536E-02  2.6512E+02  0.0000E+00    12     1  5.1667E-01  4.8333E-01
time,fu0,fu1,fu =   4.3200E+04 -4.5368E-02 -3.5633E-02 -4.0338E-02  5.1667E-01  4.8333E-01
 cg2d: Sum(rhs),rhsMax =   5.09800535120064E-14  4.88048471044203E+00
(PID.TID 0000.0001)                    cg2d_init_res =    3.38567973212929E+00
(PID.TID 0000.0001)                       cg2d_iters =    26
(PID.TID 0000.0001)                         cg2d_res =    3.27664080606883E-14
(PID.TID 0000.0001) // =======================================================
(PID.TID 0000.0001) // Begin MONITOR dynamic field statistics
(PID.TID 0000.0001) // =======================================================
(PID.TID 0000.0001) %MON time_tsnumber                =                     2
(PID.TID 0000.0001) %MON time_secondsf                =   8.6400000000000E+04
(PID.TID 0000.0001) %MON dynstat_eta_max              =   3.6642075205993E-01
(PID.TID 0000.0001) %MON dynstat_eta_min              =  -2.5542812926271E-01
(PID.TID 0000.0001) %MON dynstat_eta_mean             =   1.0766951366187E-17
(PID.TID 0000.0001) %MON dynstat_eta_sd               =   5.9802419287232E-02
(PID.TID 0000.0001) %MON dynstat_eta_del2             =   2.2181090018688E-02
(PID.TID 0000.0001) %MON dynstat_uvel_max             =   1.8742617413914E-02
(PID.TID 0000.0001) %MON dynstat_uvel_min             =  -1.7008757434475E-02
(PID.TID 0000.0001) %MON dynstat_uvel_mean            =  -6.1812261640605E-04
(PID.TID 0000.0001) %MON dynstat_uvel_sd              =   2.0365422453265E-03
(PID.TID 0000.0001) %MON dynstat_uvel_del2            =   7.7147800201479E-04
(PID.TID 0000.0001) %MON dynstat_vvel_max             =   3.3070086704749E-02
(PID.TID 0000.0001) %MON dynstat_vvel_min             =  -1.7823710906559E-02
(PID.TID 0000.0001) %MON dynstat_vvel_mean            =   1.7749222766967E-03
(PID.TID 0000.0001) %MON dynstat_vvel_sd              =   6.2103816590510E-03
(PID.TID 0000.0001) %MON dynstat_vvel_del2            =   9.3438723672966E-04
(PID.TID 0000.0001) %MON dynstat_wvel_max             =   2.0185420699784E-04
(PID.TID 0000.0001) %MON dynstat_wvel_min             =  -1.4619082137608E-04
(PID.TID 0000.0001) %MON dynstat_wvel_mean            =   3.7270646700022E-22
(PID.TID 0000.0001) %MON dynstat_wvel_sd              =   2.3946387282383E-05
(PID.TID 0000.0001) %MON dynstat_wvel_del2            =   9.7964861655408E-06
(PID.TID 0000.0001) %MON dynstat_theta_max            =   2.9695250203754E+01
(PID.TID 0000.0001) %MON dynstat_theta_min            =  -1.9046704676167E+00
(PID.TID 0000.0001) %MON dynstat_theta_mean           =   3.6180451604343E+00
(PID.TID 0000.0001) %MON dynstat_theta_sd             =   4.4133958582919E+00
(PID.TID 0000.0001) %MON dynstat_theta_del2           =   1.4858785009372E-01
(PID.TID 0000.0001) %MON dynstat_salt_max             =   3.7465922104459E+01
(PID.TID 0000.0001) %MON dynstat_salt_min             =   2.9758319089739E+01
(PID.TID 0000.0001) %MON dynstat_salt_mean            =   3.4717870437879E+01
(PID.TID 0000.0001) %MON dynstat_salt_sd              =   2.9608252734124E-01
(PID.TID 0000.0001) %MON dynstat_salt_del2            =   2.6460099483100E-02
(PID.TID 0000.0001) %MON advcfl_uvel_max              =   5.1989943937369E-03
(PID.TID 0000.0001) %MON advcfl_vvel_max              =   3.2124937331537E-03
(PID.TID 0000.0001) %MON advcfl_wvel_max              =   2.7503047971909E-01
(PID.TID 0000.0001) %MON advcfl_W_hf_max              =   2.8566390214195E-01
(PID.TID 0000.0001) %MON pe_b_mean                    =   4.5763444717600E-06
(PID.TID 0000.0001) %MON ke_max                       =   4.0262905102485E-04
(PID.TID 0000.0001) %MON ke_mean                      =   2.0787429875731E-05
(PID.TID 0000.0001) %MON ke_vol                       =   1.3226782436723E+18
(PID.TID 0000.0001) %MON vort_r_min                   =  -1.0591157787462E-07
(PID.TID 0000.0001) %MON vort_r_max                   =   1.2116719173739E-07
(PID.TID 0000.0001) %MON vort_a_mean                  =  -2.5205769260570E-05
(PID.TID 0000.0001) %MON vort_a_sd                    =   7.3403162844140E-05
(PID.TID 0000.0001) %MON vort_p_mean                  =  -3.1758669390057E-05
(PID.TID 0000.0001) %MON vort_p_sd                    =   1.3126606566404E-04
(PID.TID 0000.0001) %MON surfExpan_theta_mean         =   8.3423173084892E-05
(PID.TID 0000.0001) %MON surfExpan_salt_mean          =   6.6892887366942E-06
(PID.TID 0000.0001) // =======================================================
(PID.TID 0000.0001) // End MONITOR dynamic field statistics
(PID.TID 0000.0001) // =======================================================
time,SST,SSS,fu,fv,Q,E-P,i0,i1,a,b =   8.6400E+04  1.1350E-01  3.4387E+01 -4.0176E-02 -6.3320E-02  2.6514E+02  0.0000E+00    12     1  5.3333E-01  4.6667E-01
time,fu0,fu1,fu =   8.6400E+04 -4.5368E-02 -3.5633E-02 -4.0176E-02  5.3333E-01  4.6667E-01
 cg2d: Sum(rhs),rhsMax =  -1.17406084854110E-14  6.23803641968524E+00
(PID.TID 0000.0001)                    cg2d_init_res =    2.21964830975065E+00
(PID.TID 0000.0001)                       cg2d_iters =    26
(PID.TID 0000.0001)                         cg2d_res =    2.85735424033974E-14
(PID.TID 0000.0001) // =======================================================
(PID.TID 0000.0001) // Begin MONITOR dynamic field statistics
(PID.TID 0000.0001) // =======================================================
(PID.TID 0000.0001) %MON time_tsnumber                =                     3
(PID.TID 0000.0001) %MON time_secondsf                =   1.2960000000000E+05
(PID.TID 0000.0001) %MON dynstat_eta_max              =   5.0447743753974E-01
(PID.TID 0000.0001) %MON dynstat_eta_min              =  -3.8122928103702E-01
(PID.TID 0000.0001) %MON dynstat_eta_mean             =   2.6997847503064E-18
(PID.TID 0000.0001) %MON dynstat_eta_sd               =   9.2514851165643E-02
(PID.TID 0000.0001) %MON dynstat_eta_del2             =   2.7904917349760E-02
(PID.TID 0000.0001) %MON dynstat_uvel_max             =   3.0748714608840E-02
(PID.TID 0000.0001) %MON dynstat_uvel_min             =  -2.9887612427394E-02
(PID.TID 0000.0001) %MON dynstat_uvel_mean            =  -1.2347563610832E-03
(PID.TID 0000.0001) %MON dynstat_uvel_sd              =   2.8304408252463E-03
(PID.TID 0000.0001) %MON dynstat_uvel_del2            =   1.1349445165320E-03
(PID.TID 0000.0001) %MON dynstat_vvel_max             =   4.3827495826059E-02
(PID.TID 0000.0001) %MON dynstat_vvel_min             =  -2.5545918430171E-02
(PID.TID 0000.0001) %MON dynstat_vvel_mean            =   2.5728333586341E-03
(PID.TID 0000.0001) %MON dynstat_vvel_sd              =   8.5401776147215E-03
(PID.TID 0000.0001) %MON dynstat_vvel_del2            =   1.3456991815164E-03
(PID.TID 0000.0001) %MON dynstat_wvel_max             =   1.9966320236139E-04
(PID.TID 0000.0001) %MON dynstat_wvel_min             =  -1.7215302213926E-04
(PID.TID 0000.0001) %MON dynstat_wvel_mean            =   1.3695584743135E-21
(PID.TID 0000.0001) %MON dynstat_wvel_sd              =   2.6852357530402E-05
(PID.TID 0000.0001) %MON dynstat_wvel_del2            =   8.6463595917576E-06
(PID.TID 0000.0001) %MON dynstat_theta_max            =   2.9693876913640E+01
(PID.TID 0000.0001) %MON dynstat_theta_min            =  -1.9165848424520E+00
(PID.TID 0000.0001) %MON dynstat_theta_mean           =   3.6166050297387E+00
(PID.TID 0000.0001) %MON dynstat_theta_sd             =   4.4102951129677E+00
(PID.TID 0000.0001) %MON dynstat_theta_del2           =   1.4734415380154E-01
(PID.TID 0000.0001) %MON dynstat_salt_max             =   3.7461480469125E+01
(PID.TID 0000.0001) %MON dynstat_salt_min             =   2.9762089295090E+01
(PID.TID 0000.0001) %MON dynstat_salt_mean            =   3.4717748756376E+01
(PID.TID 0000.0001) %MON dynstat_salt_sd              =   2.9607393342966E-01
(PID.TID 0000.0001) %MON dynstat_salt_del2            =   2.6366190050189E-02
(PID.TID 0000.0001) %MON advcfl_uvel_max              =   6.3252572287560E-03
(PID.TID 0000.0001) %MON advcfl_vvel_max              =   4.2574897652390E-03
(PID.TID 0000.0001) %MON advcfl_wvel_max              =   2.0873391319125E-01
(PID.TID 0000.0001) %MON advcfl_W_hf_max              =   2.1768957936022E-01
(PID.TID 0000.0001) %MON pe_b_mean                    =   1.0952269179714E-05
(PID.TID 0000.0001) %MON ke_max                       =   7.4676338471534E-04
(PID.TID 0000.0001) %MON ke_mean                      =   4.0047683146680E-05
(PID.TID 0000.0001) %MON ke_vol                       =   1.3226782436723E+18
(PID.TID 0000.0001) %MON vort_r_min                   =  -1.5301597332276E-07
(PID.TID 0000.0001) %MON vort_r_max                   =   1.7605569372901E-07
(PID.TID 0000.0001) %MON vort_a_mean                  =  -2.5205769243887E-05
(PID.TID 0000.0001) %MON vort_a_sd                    =   7.3403039694991E-05
(PID.TID 0000.0001) %MON vort_p_mean                  =  -3.1758669369038E-05
(PID.TID 0000.0001) %MON vort_p_sd                    =   1.3126579822803E-04
(PID.TID 0000.0001) %MON surfExpan_theta_mean         =   1.1255486781963E-04
(PID.TID 0000.0001) %MON surfExpan_salt_mean          =   9.2738974730469E-06
(PID.TID 0000.0001) // =======================================================
(PID.TID 0000.0001) // End MONITOR dynamic field statistics
(PID.TID 0000.0001) // =======================================================
time,SST,SSS,fu,fv,Q,E-P,i0,i1,a,b =   1.2960E+05  1.4368E-01  3.4399E+01 -4.0014E-02 -6.3103E-02  2.6516E+02  0.0000E+00    12     1  5.5000E-01  4.5000E-01
time,fu0,fu1,fu =   1.2960E+05 -4.5368E-02 -3.5633E-02 -4.0014E-02  5.5000E-01  4.5000E-01
 cg2d: Sum(rhs),rhsMax =   4.60222138176647E-14  6.79014299228627E+00
(PID.TID 0000.0001)                    cg2d_init_res =    1.84397149847904E+00
(PID.TID 0000.0001)                       cg2d_iters =    26
(PID.TID 0000.0001)                         cg2d_res =    2.55763781723462E-14
(PID.TID 0000.0001) // =======================================================
(PID.TID 0000.0001) // Begin MONITOR dynamic field statistics
(PID.TID 0000.0001) // =======================================================
(PID.TID 0000.0001) %MON time_tsnumber                =                     4
(PID.TID 0000.0001) %MON time_secondsf                =   1.7280000000000E+05
(PID.TID 0000.0001) %MON dynstat_eta_max              =   5.8744280224194E-01
(PID.TID 0000.0001) %MON dynstat_eta_min              =  -4.9922435149372E-01
(PID.TID 0000.0001) %MON dynstat_eta_mean             =   1.7301389504597E-17
(PID.TID 0000.0001) %MON dynstat_eta_sd               =   1.2282110482491E-01
(PID.TID 0000.0001) %MON dynstat_eta_del2             =   2.9664533615295E-02
(PID.TID 0000.0001) %MON dynstat_uvel_max             =   4.3275845499344E-02
(PID.TID 0000.0001) %MON dynstat_uvel_min             =  -4.2470479735484E-02
(PID.TID 0000.0001) %MON dynstat_uvel_mean            =  -1.9743371436809E-03
(PID.TID 0000.0001) %MON dynstat_uvel_sd              =   3.7660682797491E-03
(PID.TID 0000.0001) %MON dynstat_uvel_del2            =   1.4942872230642E-03
(PID.TID 0000.0001) %MON dynstat_vvel_max             =   5.0865239646011E-02
(PID.TID 0000.0001) %MON dynstat_vvel_min             =  -3.7807952781044E-02
(PID.TID 0000.0001) %MON dynstat_vvel_mean            =   3.2826064600717E-03
(PID.TID 0000.0001) %MON dynstat_vvel_sd              =   1.0483838835754E-02
(PID.TID 0000.0001) %MON dynstat_vvel_del2            =   1.7640692186993E-03
(PID.TID 0000.0001) %MON dynstat_wvel_max             =   1.9909629511443E-04
(PID.TID 0000.0001) %MON dynstat_wvel_min             =  -2.0243042163513E-04
(PID.TID 0000.0001) %MON dynstat_wvel_mean            =  -5.8501913135670E-22
(PID.TID 0000.0001) %MON dynstat_wvel_sd              =   2.8700892737841E-05
(PID.TID 0000.0001) %MON dynstat_wvel_del2            =   8.2544056448438E-06
(PID.TID 0000.0001) %MON dynstat_theta_max            =   2.9706174523039E+01
(PID.TID 0000.0001) %MON dynstat_theta_min            =  -1.9336756604094E+00
(PID.TID 0000.0001) %MON dynstat_theta_mean           =   3.6149643369732E+00
(PID.TID 0000.0001) %MON dynstat_theta_sd             =   4.4067800865102E+00
(PID.TID 0000.0001) %MON dynstat_theta_del2           =   1.4653336001984E-01
(PID.TID 0000.0001) %MON dynstat_salt_max             =   3.7457127798715E+01
(PID.TID 0000.0001) %MON dynstat_salt_min             =   2.9766149544949E+01
(PID.TID 0000.0001) %MON dynstat_salt_mean            =   3.4717609911393E+01
(PID.TID 0000.0001) %MON dynstat_salt_sd              =   2.9605659689270E-01
(PID.TID 0000.0001) %MON dynstat_salt_del2            =   2.6253513702854E-02
(PID.TID 0000.0001) %MON advcfl_uvel_max              =   8.9567892640406E-03
(PID.TID 0000.0001) %MON advcfl_vvel_max              =   4.9411501414270E-03
(PID.TID 0000.0001) %MON advcfl_wvel_max              =   2.3259770991650E-01
(PID.TID 0000.0001) %MON advcfl_W_hf_max              =   2.3267734139935E-01
(PID.TID 0000.0001) %MON pe_b_mean                    =   1.9303106180450E-05
(PID.TID 0000.0001) %MON ke_max                       =   1.1227686635806E-03
(PID.TID 0000.0001) %MON ke_mean                      =   6.2396005914680E-05
(PID.TID 0000.0001) %MON ke_vol                       =   1.3226782436723E+18
(PID.TID 0000.0001) %MON vort_r_min                   =  -2.0273078629522E-07
(PID.TID 0000.0001) %MON vort_r_max                   =   2.2565138482576E-07
(PID.TID 0000.0001) %MON vort_a_mean                  =  -2.5205769220858E-05
(PID.TID 0000.0001) %MON vort_a_sd                    =   7.3402896496066E-05
(PID.TID 0000.0001) %MON vort_p_mean                  =  -3.1758669340022E-05
(PID.TID 0000.0001) %MON vort_p_sd                    =   1.3126543256098E-04
(PID.TID 0000.0001) %MON surfExpan_theta_mean         =   1.3465266804450E-04
(PID.TID 0000.0001) %MON surfExpan_salt_mean          =   1.1193488633964E-05
(PID.TID 0000.0001) // =======================================================
(PID.TID 0000.0001) // End MONITOR dynamic field statistics
(PID.TID 0000.0001) // =======================================================
time,SST,SSS,fu,fv,Q,E-P,i0,i1,a,b =   1.7280E+05  1.7385E-01  3.4410E+01 -3.9851E-02 -6.2886E-02  2.6519E+02  0.0000E+00    12     1  5.6667E-01  4.3333E-01
time,fu0,fu1,fu =   1.7280E+05 -4.5368E-02 -3.5633E-02 -3.9851E-02  5.6667E-01  4.3333E-01
 cg2d: Sum(rhs),rhsMax =  -6.82023881815041E-14  6.92874107573634E+00
(PID.TID 0000.0001)                    cg2d_init_res =    1.75169689873266E+00
(PID.TID 0000.0001)                       cg2d_iters =    26
(PID.TID 0000.0001)                         cg2d_res =    2.59803641655544E-14
(PID.TID 0000.0001) // =======================================================
(PID.TID 0000.0001) // Begin MONITOR dynamic field statistics
(PID.TID 0000.0001) // =======================================================
(PID.TID 0000.0001) %MON time_tsnumber                =                     5
(PID.TID 0000.0001) %MON time_secondsf                =   2.1600000000000E+05
(PID.TID 0000.0001) %MON dynstat_eta_max              =   6.3271088691646E-01
(PID.TID 0000.0001) %MON dynstat_eta_min              =  -5.7992542420118E-01
(PID.TID 0000.0001) %MON dynstat_eta_mean             =  -2.3128301874222E-17
(PID.TID 0000.0001) %MON dynstat_eta_sd               =   1.5134273733701E-01
(PID.TID 0000.0001) %MON dynstat_eta_del2             =   2.9337520927988E-02
(PID.TID 0000.0001) %MON dynstat_uvel_max             =   5.5843085399552E-02
(PID.TID 0000.0001) %MON dynstat_uvel_min             =  -5.3444186272245E-02
(PID.TID 0000.0001) %MON dynstat_uvel_mean            =  -2.8074348506211E-03
(PID.TID 0000.0001) %MON dynstat_uvel_sd              =   4.8414578887370E-03
(PID.TID 0000.0001) %MON dynstat_uvel_del2            =   1.8312469199494E-03
(PID.TID 0000.0001) %MON dynstat_vvel_max             =   5.7021703108535E-02
(PID.TID 0000.0001) %MON dynstat_vvel_min             =  -4.9872134635055E-02
(PID.TID 0000.0001) %MON dynstat_vvel_mean            =   3.8899428148229E-03
(PID.TID 0000.0001) %MON dynstat_vvel_sd              =   1.2085737989215E-02
(PID.TID 0000.0001) %MON dynstat_vvel_del2            =   2.1605252922447E-03
(PID.TID 0000.0001) %MON dynstat_wvel_max             =   2.2883634006162E-04
(PID.TID 0000.0001) %MON dynstat_wvel_min             =  -2.3869685302406E-04
(PID.TID 0000.0001) %MON dynstat_wvel_mean            =  -1.2104248360687E-21
(PID.TID 0000.0001) %MON dynstat_wvel_sd              =   3.0511636922341E-05
(PID.TID 0000.0001) %MON dynstat_wvel_del2            =   8.9710499558262E-06
(PID.TID 0000.0001) %MON dynstat_theta_max            =   2.9720537578616E+01
(PID.TID 0000.0001) %MON dynstat_theta_min            =  -1.9541377379803E+00
(PID.TID 0000.0001) %MON dynstat_theta_mean           =   3.6131851876468E+00
(PID.TID 0000.0001) %MON dynstat_theta_sd             =   4.4029374434033E+00
(PID.TID 0000.0001) %MON dynstat_theta_del2           =   1.4585436068036E-01
(PID.TID 0000.0001) %MON dynstat_salt_max             =   3.7452892733702E+01
(PID.TID 0000.0001) %MON dynstat_salt_min             =   2.9770341301067E+01
(PID.TID 0000.0001) %MON dynstat_salt_mean            =   3.4717460594616E+01
(PID.TID 0000.0001) %MON dynstat_salt_sd              =   2.9603661181827E-01
(PID.TID 0000.0001) %MON dynstat_salt_del2            =   2.6165231738978E-02
(PID.TID 0000.0001) %MON advcfl_uvel_max              =   1.1746279775440E-02
(PID.TID 0000.0001) %MON advcfl_vvel_max              =   5.5392011979096E-03
(PID.TID 0000.0001) %MON advcfl_wvel_max              =   2.4450384445045E-01
(PID.TID 0000.0001) %MON advcfl_W_hf_max              =   2.4787864229426E-01
(PID.TID 0000.0001) %MON pe_b_mean                    =   2.9309227352278E-05
(PID.TID 0000.0001) %MON ke_max                       =   1.7055394127414E-03
(PID.TID 0000.0001) %MON ke_mean                      =   8.6598062031313E-05
(PID.TID 0000.0001) %MON ke_vol                       =   1.3226782436723E+18
(PID.TID 0000.0001) %MON vort_r_min                   =  -2.4767825566004E-07
(PID.TID 0000.0001) %MON vort_r_max                   =   2.6903270038204E-07
(PID.TID 0000.0001) %MON vort_a_mean                  =  -2.5205769190759E-05
(PID.TID 0000.0001) %MON vort_a_sd                    =   7.3402738153696E-05
(PID.TID 0000.0001) %MON vort_p_mean                  =  -3.1758669302097E-05
(PID.TID 0000.0001) %MON vort_p_sd                    =   1.3126497682573E-04
(PID.TID 0000.0001) %MON surfExpan_theta_mean         =   1.5065596420319E-04
(PID.TID 0000.0001) %MON surfExpan_salt_mean          =   1.2494062820392E-05
(PID.TID 0000.0001) // =======================================================
(PID.TID 0000.0001) // End MONITOR dynamic field statistics
(PID.TID 0000.0001) // =======================================================
time,SST,SSS,fu,fv,Q,E-P,i0,i1,a,b =   2.1600E+05  2.0403E-01  3.4422E+01 -3.9689E-02 -6.2670E-02  2.6521E+02  0.0000E+00    12     1  5.8333E-01  4.1667E-01
time,fu0,fu1,fu =   2.1600E+05 -4.5368E-02 -3.5633E-02 -3.9689E-02  5.8333E-01  4.1667E-01
 cg2d: Sum(rhs),rhsMax =  -6.17995238316738E-14  6.89395558172306E+00
(PID.TID 0000.0001)                    cg2d_init_res =    1.71510087440367E+00
(PID.TID 0000.0001)                       cg2d_iters =    26
(PID.TID 0000.0001)                         cg2d_res =    2.74380042537324E-14
(PID.TID 0000.0001) // =======================================================
(PID.TID 0000.0001) // Begin MONITOR dynamic field statistics
(PID.TID 0000.0001) // =======================================================
(PID.TID 0000.0001) %MON time_tsnumber                =                     6
(PID.TID 0000.0001) %MON time_secondsf                =   2.5920000000000E+05
(PID.TID 0000.0001) %MON dynstat_eta_max              =   7.1959482660992E-01
(PID.TID 0000.0001) %MON dynstat_eta_min              =  -6.4368137979645E-01
(PID.TID 0000.0001) %MON dynstat_eta_mean             =  -2.9883613864140E-17
(PID.TID 0000.0001) %MON dynstat_eta_sd               =   1.7871417582711E-01
(PID.TID 0000.0001) %MON dynstat_eta_del2             =   2.8270516956560E-02
(PID.TID 0000.0001) %MON dynstat_uvel_max             =   6.8176134256858E-02
(PID.TID 0000.0001) %MON dynstat_uvel_min             =  -6.2618554241697E-02
(PID.TID 0000.0001) %MON dynstat_uvel_mean            =  -3.7032814173587E-03
(PID.TID 0000.0001) %MON dynstat_uvel_sd              =   6.0227450388555E-03
(PID.TID 0000.0001) %MON dynstat_uvel_del2            =   2.1457379078955E-03
(PID.TID 0000.0001) %MON dynstat_vvel_max             =   6.8809080029910E-02
(PID.TID 0000.0001) %MON dynstat_vvel_min             =  -6.1181399430826E-02
(PID.TID 0000.0001) %MON dynstat_vvel_mean            =   4.3839317751562E-03
(PID.TID 0000.0001) %MON dynstat_vvel_sd              =   1.3369761485057E-02
(PID.TID 0000.0001) %MON dynstat_vvel_del2            =   2.5217186079608E-03
(PID.TID 0000.0001) %MON dynstat_wvel_max             =   2.5627514039465E-04
(PID.TID 0000.0001) %MON dynstat_wvel_min             =  -2.7194470551627E-04
(PID.TID 0000.0001) %MON dynstat_wvel_mean            =  -1.1682718228601E-21
(PID.TID 0000.0001) %MON dynstat_wvel_sd              =   3.2463262892734E-05
(PID.TID 0000.0001) %MON dynstat_wvel_del2            =   1.0209422212276E-05
(PID.TID 0000.0001) %MON dynstat_theta_max            =   2.9726455071511E+01
(PID.TID 0000.0001) %MON dynstat_theta_min            =  -1.9756921638916E+00
(PID.TID 0000.0001) %MON dynstat_theta_mean           =   3.6113235323162E+00
(PID.TID 0000.0001) %MON dynstat_theta_sd             =   4.3988501742679E+00
(PID.TID 0000.0001) %MON dynstat_theta_del2           =   1.4510139555316E-01
(PID.TID 0000.0001) %MON dynstat_salt_max             =   3.7449510091548E+01
(PID.TID 0000.0001) %MON dynstat_salt_min             =   2.9774513629707E+01
(PID.TID 0000.0001) %MON dynstat_salt_mean            =   3.4717306355506E+01
(PID.TID 0000.0001) %MON dynstat_salt_sd              =   2.9601367291548E-01
(PID.TID 0000.0001) %MON dynstat_salt_del2            =   2.6080200272190E-02
(PID.TID 0000.0001) %MON advcfl_uvel_max              =   1.5051312200622E-02
(PID.TID 0000.0001) %MON advcfl_vvel_max              =   6.6842503424225E-03
(PID.TID 0000.0001) %MON advcfl_wvel_max              =   2.1502942959283E-01
(PID.TID 0000.0001) %MON advcfl_W_hf_max              =   2.2312935941223E-01
(PID.TID 0000.0001) %MON pe_b_mean                    =   4.0869488791631E-05
(PID.TID 0000.0001) %MON ke_max                       =   2.4665141762373E-03
(PID.TID 0000.0001) %MON ke_mean                      =   1.1158732574306E-04
(PID.TID 0000.0001) %MON ke_vol                       =   1.3226782436723E+18
(PID.TID 0000.0001) %MON vort_r_min                   =  -2.8619411441847E-07
(PID.TID 0000.0001) %MON vort_r_max                   =   3.0627229398579E-07
(PID.TID 0000.0001) %MON vort_a_mean                  =  -2.5205769176228E-05
(PID.TID 0000.0001) %MON vort_a_sd                    =   7.3402569514181E-05
(PID.TID 0000.0001) %MON vort_p_mean                  =  -3.1758669283789E-05
(PID.TID 0000.0001) %MON vort_p_sd                    =   1.3126444450617E-04
(PID.TID 0000.0001) %MON surfExpan_theta_mean         =   1.6129174175931E-04
(PID.TID 0000.0001) %MON surfExpan_salt_mean          =   1.3255561350299E-05
(PID.TID 0000.0001) // =======================================================
(PID.TID 0000.0001) // End MONITOR dynamic field statistics
(PID.TID 0000.0001) // =======================================================
time,SST,SSS,fu,fv,Q,E-P,i0,i1,a,b =   2.5920E+05  2.3421E-01  3.4434E+01 -3.9527E-02 -6.2453E-02  2.6523E+02  0.0000E+00    12     1  6.0000E-01  4.0000E-01
time,fu0,fu1,fu =   2.5920E+05 -4.5368E-02 -3.5633E-02 -3.9527E-02  6.0000E-01  4.0000E-01
 cg2d: Sum(rhs),rhsMax =  -1.91834395590895E-14  7.15197465286572E+00
(PID.TID 0000.0001)                    cg2d_init_res =    1.59738164591764E+00
(PID.TID 0000.0001)                       cg2d_iters =    26
(PID.TID 0000.0001)                         cg2d_res =    2.62641988737220E-14
(PID.TID 0000.0001) // =======================================================
(PID.TID 0000.0001) // Begin MONITOR dynamic field statistics
(PID.TID 0000.0001) // =======================================================
(PID.TID 0000.0001) %MON time_tsnumber                =                     7
(PID.TID 0000.0001) %MON time_secondsf                =   3.0240000000000E+05
(PID.TID 0000.0001) %MON dynstat_eta_max              =   8.2241092333071E-01
(PID.TID 0000.0001) %MON dynstat_eta_min              =  -7.0122096557053E-01
(PID.TID 0000.0001) %MON dynstat_eta_mean             =  -1.2061476232645E-17
(PID.TID 0000.0001) %MON dynstat_eta_sd               =   2.0514322641313E-01
(PID.TID 0000.0001) %MON dynstat_eta_del2             =   2.7124802488812E-02
(PID.TID 0000.0001) %MON dynstat_uvel_max             =   8.0140737374691E-02
(PID.TID 0000.0001) %MON dynstat_uvel_min             =  -7.5133654501574E-02
(PID.TID 0000.0001) %MON dynstat_uvel_mean            =  -4.6308632570488E-03
(PID.TID 0000.0001) %MON dynstat_uvel_sd              =   7.2758119319908E-03
(PID.TID 0000.0001) %MON dynstat_uvel_del2            =   2.4440334158700E-03
(PID.TID 0000.0001) %MON dynstat_vvel_max             =   7.9433858079765E-02
(PID.TID 0000.0001) %MON dynstat_vvel_min             =  -7.2766938579968E-02
(PID.TID 0000.0001) %MON dynstat_vvel_mean            =   4.7577705534311E-03
(PID.TID 0000.0001) %MON dynstat_vvel_sd              =   1.4358569881164E-02
(PID.TID 0000.0001) %MON dynstat_vvel_del2            =   2.8496681182203E-03
(PID.TID 0000.0001) %MON dynstat_wvel_max             =   2.8110386621251E-04
(PID.TID 0000.0001) %MON dynstat_wvel_min             =  -3.0181171442859E-04
(PID.TID 0000.0001) %MON dynstat_wvel_mean            =  -2.6367335694682E-22
(PID.TID 0000.0001) %MON dynstat_wvel_sd              =   3.4463613104968E-05
(PID.TID 0000.0001) %MON dynstat_wvel_del2            =   1.1492159747404E-05
(PID.TID 0000.0001) %MON dynstat_theta_max            =   2.9720036485839E+01
(PID.TID 0000.0001) %MON dynstat_theta_min            =  -1.9960570532199E+00
(PID.TID 0000.0001) %MON dynstat_theta_mean           =   3.6094295270755E+00
(PID.TID 0000.0001) %MON dynstat_theta_sd             =   4.3945911884779E+00
(PID.TID 0000.0001) %MON dynstat_theta_del2           =   1.4421339698756E-01
(PID.TID 0000.0001) %MON dynstat_salt_max             =   3.7446951356462E+01
(PID.TID 0000.0001) %MON dynstat_salt_min             =   2.9778528273974E+01
(PID.TID 0000.0001) %MON dynstat_salt_mean            =   3.4717151911023E+01
(PID.TID 0000.0001) %MON dynstat_salt_sd              =   2.9598386105932E-01
(PID.TID 0000.0001) %MON dynstat_salt_del2            =   2.5992106483460E-02
(PID.TID 0000.0001) %MON advcfl_uvel_max              =   1.7764484423089E-02
(PID.TID 0000.0001) %MON advcfl_vvel_max              =   7.7163623294892E-03
(PID.TID 0000.0001) %MON advcfl_wvel_max              =   1.8338362367862E-01
(PID.TID 0000.0001) %MON advcfl_W_hf_max              =   1.8262146266474E-01
(PID.TID 0000.0001) %MON pe_b_mean                    =   5.3851222080326E-05
(PID.TID 0000.0001) %MON ke_max                       =   3.2883081749723E-03
(PID.TID 0000.0001) %MON ke_mean                      =   1.3651357496444E-04
(PID.TID 0000.0001) %MON ke_vol                       =   1.3226782436723E+18
(PID.TID 0000.0001) %MON vort_r_min                   =  -3.1772573175658E-07
(PID.TID 0000.0001) %MON vort_r_max                   =   3.3848954948146E-07
(PID.TID 0000.0001) %MON vort_a_mean                  =  -2.5205769190669E-05
(PID.TID 0000.0001) %MON vort_a_sd                    =   7.3402395538459E-05
(PID.TID 0000.0001) %MON vort_p_mean                  =  -3.1758669301984E-05
(PID.TID 0000.0001) %MON vort_p_sd                    =   1.3126385217334E-04
(PID.TID 0000.0001) %MON surfExpan_theta_mean         =   1.6714370919311E-04
(PID.TID 0000.0001) %MON surfExpan_salt_mean          =   1.3552568122579E-05
(PID.TID 0000.0001) // =======================================================
(PID.TID 0000.0001) // End MONITOR dynamic field statistics
(PID.TID 0000.0001) // =======================================================
time,SST,SSS,fu,fv,Q,E-P,i0,i1,a,b =   3.0240E+05  2.6438E-01  3.4446E+01 -3.9365E-02 -6.2237E-02  2.6525E+02  0.0000E+00    12     1  6.1667E-01  3.8333E-01
time,fu0,fu1,fu =   3.0240E+05 -4.5368E-02 -3.5633E-02 -3.9365E-02  6.1667E-01  3.8333E-01
 cg2d: Sum(rhs),rhsMax =  -5.15221545982492E-14  7.75912737003211E+00
(PID.TID 0000.0001)                    cg2d_init_res =    1.41815022550285E+00
(PID.TID 0000.0001)                       cg2d_iters =    26
(PID.TID 0000.0001)                         cg2d_res =    2.36111246841890E-14
(PID.TID 0000.0001) // =======================================================
(PID.TID 0000.0001) // Begin MONITOR dynamic field statistics
(PID.TID 0000.0001) // =======================================================
(PID.TID 0000.0001) %MON time_tsnumber                =                     8
(PID.TID 0000.0001) %MON time_secondsf                =   3.4560000000000E+05
(PID.TID 0000.0001) %MON dynstat_eta_max              =   8.9650260250649E-01
(PID.TID 0000.0001) %MON dynstat_eta_min              =  -7.3524935538068E-01
(PID.TID 0000.0001) %MON dynstat_eta_mean             =   7.1423902401168E-17
(PID.TID 0000.0001) %MON dynstat_eta_sd               =   2.3053366000746E-01
(PID.TID 0000.0001) %MON dynstat_eta_del2             =   2.6272280887432E-02
(PID.TID 0000.0001) %MON dynstat_uvel_max             =   9.1706035754972E-02
(PID.TID 0000.0001) %MON dynstat_uvel_min             =  -9.5582619500714E-02
(PID.TID 0000.0001) %MON dynstat_uvel_mean            =  -5.5596287471521E-03
(PID.TID 0000.0001) %MON dynstat_uvel_sd              =   8.5682222677367E-03
(PID.TID 0000.0001) %MON dynstat_uvel_del2            =   2.7287171699338E-03
(PID.TID 0000.0001) %MON dynstat_vvel_max             =   8.7404412837528E-02
(PID.TID 0000.0001) %MON dynstat_vvel_min             =  -8.4408846778390E-02
(PID.TID 0000.0001) %MON dynstat_vvel_mean            =   5.0090112147663E-03
(PID.TID 0000.0001) %MON dynstat_vvel_sd              =   1.5079059633243E-02
(PID.TID 0000.0001) %MON dynstat_vvel_del2            =   3.1472846484758E-03
(PID.TID 0000.0001) %MON dynstat_wvel_max             =   3.0283417306452E-04
(PID.TID 0000.0001) %MON dynstat_wvel_min             =  -3.2829884556809E-04
(PID.TID 0000.0001) %MON dynstat_wvel_mean            =  -8.7182850770930E-22
(PID.TID 0000.0001) %MON dynstat_wvel_sd              =   3.6352001202761E-05
(PID.TID 0000.0001) %MON dynstat_wvel_del2            =   1.2630465675372E-05
(PID.TID 0000.0001) %MON dynstat_theta_max            =   2.9705167312635E+01
(PID.TID 0000.0001) %MON dynstat_theta_min            =  -2.0133922165686E+00
(PID.TID 0000.0001) %MON dynstat_theta_mean           =   3.6075474243549E+00
(PID.TID 0000.0001) %MON dynstat_theta_sd             =   4.3902298724629E+00
(PID.TID 0000.0001) %MON dynstat_theta_del2           =   1.4324082430225E-01
(PID.TID 0000.0001) %MON dynstat_salt_max             =   3.7444925804362E+01
(PID.TID 0000.0001) %MON dynstat_salt_min             =   2.9782263857737E+01
(PID.TID 0000.0001) %MON dynstat_salt_mean            =   3.4717001360449E+01
(PID.TID 0000.0001) %MON dynstat_salt_sd              =   2.9594522263456E-01
(PID.TID 0000.0001) %MON dynstat_salt_del2            =   2.5903061914694E-02
(PID.TID 0000.0001) %MON advcfl_uvel_max              =   1.9385286530362E-02
(PID.TID 0000.0001) %MON advcfl_vvel_max              =   8.4906378080411E-03
(PID.TID 0000.0001) %MON advcfl_wvel_max              =   1.9847901459936E-01
(PID.TID 0000.0001) %MON advcfl_W_hf_max              =   2.0418629431284E-01
(PID.TID 0000.0001) %MON pe_b_mean                    =   6.8006416473147E-05
(PID.TID 0000.0001) %MON ke_max                       =   4.3071999600391E-03
(PID.TID 0000.0001) %MON ke_mean                      =   1.6073998684811E-04
(PID.TID 0000.0001) %MON ke_vol                       =   1.3226782436723E+18
(PID.TID 0000.0001) %MON vort_r_min                   =  -3.4275975421683E-07
(PID.TID 0000.0001) %MON vort_r_max                   =   4.1943167171669E-07
(PID.TID 0000.0001) %MON vort_a_mean                  =  -2.5205769233152E-05
(PID.TID 0000.0001) %MON vort_a_sd                    =   7.3402221263636E-05
(PID.TID 0000.0001) %MON vort_p_mean                  =  -3.1758669355512E-05
(PID.TID 0000.0001) %MON vort_p_sd                    =   1.3126321830726E-04
(PID.TID 0000.0001) %MON surfExpan_theta_mean         =   1.6876542317858E-04
(PID.TID 0000.0001) %MON surfExpan_salt_mean          =   1.3448645927714E-05
(PID.TID 0000.0001) // =======================================================
(PID.TID 0000.0001) // End MONITOR dynamic field statistics
(PID.TID 0000.0001) // =======================================================
time,SST,SSS,fu,fv,Q,E-P,i0,i1,a,b =   3.4560E+05  2.9456E-01  3.4457E+01 -3.9202E-02 -6.2020E-02  2.6528E+02  0.0000E+00    12     1  6.3333E-01  3.6667E-01
time,fu0,fu1,fu =   3.4560E+05 -4.5368E-02 -3.5633E-02 -3.9202E-02  6.3333E-01  3.6667E-01
 cg2d: Sum(rhs),rhsMax =  -9.81766751229074E-15  8.10189543860990E+00
(PID.TID 0000.0001)                    cg2d_init_res =    1.30943319583915E+00
(PID.TID 0000.0001)                       cg2d_iters =    25
(PID.TID 0000.0001)                         cg2d_res =    9.75841872088373E-14
(PID.TID 0000.0001) // =======================================================
(PID.TID 0000.0001) // Begin MONITOR dynamic field statistics
(PID.TID 0000.0001) // =======================================================
(PID.TID 0000.0001) %MON time_tsnumber                =                     9
(PID.TID 0000.0001) %MON time_secondsf                =   3.8880000000000E+05
(PID.TID 0000.0001) %MON dynstat_eta_max              =   9.4064172109216E-01
(PID.TID 0000.0001) %MON dynstat_eta_min              =  -8.1284644268366E-01
(PID.TID 0000.0001) %MON dynstat_eta_mean             =   2.0683211468162E-17
(PID.TID 0000.0001) %MON dynstat_eta_sd               =   2.5465324513676E-01
(PID.TID 0000.0001) %MON dynstat_eta_del2             =   2.5570088666798E-02
(PID.TID 0000.0001) %MON dynstat_uvel_max             =   1.0289594293347E-01
(PID.TID 0000.0001) %MON dynstat_uvel_min             =  -1.1425471407149E-01
(PID.TID 0000.0001) %MON dynstat_uvel_mean            =  -6.4602880995525E-03
(PID.TID 0000.0001) %MON dynstat_uvel_sd              =   9.8690487977966E-03
(PID.TID 0000.0001) %MON dynstat_uvel_del2            =   2.9987328415348E-03
(PID.TID 0000.0001) %MON dynstat_vvel_max             =   9.2313953966729E-02
(PID.TID 0000.0001) %MON dynstat_vvel_min             =  -9.5436241088448E-02
(PID.TID 0000.0001) %MON dynstat_vvel_mean            =   5.1397209860702E-03
(PID.TID 0000.0001) %MON dynstat_vvel_sd              =   1.5563600994073E-02
(PID.TID 0000.0001) %MON dynstat_vvel_del2            =   3.4166961062218E-03
(PID.TID 0000.0001) %MON dynstat_wvel_max             =   3.2059522740497E-04
(PID.TID 0000.0001) %MON dynstat_wvel_min             =  -3.5192453575263E-04
(PID.TID 0000.0001) %MON dynstat_wvel_mean            =  -9.6196781472322E-22
(PID.TID 0000.0001) %MON dynstat_wvel_sd              =   3.7995755507349E-05
(PID.TID 0000.0001) %MON dynstat_wvel_del2            =   1.3583144288455E-05
(PID.TID 0000.0001) %MON dynstat_theta_max            =   2.9683514251005E+01
(PID.TID 0000.0001) %MON dynstat_theta_min            =  -2.0265867505611E+00
(PID.TID 0000.0001) %MON dynstat_theta_mean           =   3.6057148230305E+00
(PID.TID 0000.0001) %MON dynstat_theta_sd             =   4.3858307531006E+00
(PID.TID 0000.0001) %MON dynstat_theta_del2           =   1.4227783036145E-01
(PID.TID 0000.0001) %MON dynstat_salt_max             =   3.7443133627112E+01
(PID.TID 0000.0001) %MON dynstat_salt_min             =   2.9785619043049E+01
(PID.TID 0000.0001) %MON dynstat_salt_mean            =   3.4716858166526E+01
(PID.TID 0000.0001) %MON dynstat_salt_sd              =   2.9589856715514E-01
(PID.TID 0000.0001) %MON dynstat_salt_del2            =   2.5817882786434E-02
(PID.TID 0000.0001) %MON advcfl_uvel_max              =   1.9732454209858E-02
(PID.TID 0000.0001) %MON advcfl_vvel_max              =   9.2708655150989E-03
(PID.TID 0000.0001) %MON advcfl_wvel_max              =   2.0775397802010E-01
(PID.TID 0000.0001) %MON advcfl_W_hf_max              =   2.1660299052300E-01
(PID.TID 0000.0001) %MON pe_b_mean                    =   8.2981184539672E-05
(PID.TID 0000.0001) %MON ke_max                       =   5.4183702174993E-03
(PID.TID 0000.0001) %MON ke_mean                      =   1.8381578467116E-04
(PID.TID 0000.0001) %MON ke_vol                       =   1.3226782436723E+18
(PID.TID 0000.0001) %MON vort_r_min                   =  -3.6241054083024E-07
(PID.TID 0000.0001) %MON vort_r_max                   =   5.0229434668899E-07
(PID.TID 0000.0001) %MON vort_a_mean                  =  -2.5205769294172E-05
(PID.TID 0000.0001) %MON vort_a_sd                    =   7.3402051636646E-05
(PID.TID 0000.0001) %MON vort_p_mean                  =  -3.1758669432396E-05
(PID.TID 0000.0001) %MON vort_p_sd                    =   1.3126256325809E-04
(PID.TID 0000.0001) %MON surfExpan_theta_mean         =   1.6670246632730E-04
(PID.TID 0000.0001) %MON surfExpan_salt_mean          =   1.3000316652433E-05
(PID.TID 0000.0001) // =======================================================
(PID.TID 0000.0001) // End MONITOR dynamic field statistics
(PID.TID 0000.0001) // =======================================================
time,SST,SSS,fu,fv,Q,E-P,i0,i1,a,b =   3.8880E+05  3.2473E-01  3.4469E+01 -3.9040E-02 -6.1804E-02  2.6530E+02  0.0000E+00    12     1  6.5000E-01  3.5000E-01
time,fu0,fu1,fu =   3.8880E+05 -4.5368E-02 -3.5633E-02 -3.9040E-02  6.5000E-01  3.5000E-01
 cg2d: Sum(rhs),rhsMax =  -7.33621605304713E-14  8.20838987866646E+00
(PID.TID 0000.0001)                    cg2d_init_res =    1.24843073915269E+00
(PID.TID 0000.0001)                       cg2d_iters =    25
(PID.TID 0000.0001)                         cg2d_res =    9.14512458266233E-14
(PID.TID 0000.0001) // =======================================================
(PID.TID 0000.0001) // Begin MONITOR dynamic field statistics
(PID.TID 0000.0001) // =======================================================
(PID.TID 0000.0001) %MON time_tsnumber                =                    10
(PID.TID 0000.0001) %MON time_secondsf                =   4.3200000000000E+05
(PID.TID 0000.0001) %MON dynstat_eta_max              =   9.5839646272561E-01
(PID.TID 0000.0001) %MON dynstat_eta_min              =  -8.6938680930188E-01
(PID.TID 0000.0001) %MON dynstat_eta_mean             =   8.6433617385285E-17
(PID.TID 0000.0001) %MON dynstat_eta_sd               =   2.7723382795637E-01
(PID.TID 0000.0001) %MON dynstat_eta_del2             =   2.4849531777398E-02
(PID.TID 0000.0001) %MON dynstat_uvel_max             =   1.1373756886608E-01
(PID.TID 0000.0001) %MON dynstat_uvel_min             =  -1.2999275285327E-01
(PID.TID 0000.0001) %MON dynstat_uvel_mean            =  -7.3056378157081E-03
(PID.TID 0000.0001) %MON dynstat_uvel_sd              =   1.1150072993368E-02
(PID.TID 0000.0001) %MON dynstat_uvel_del2            =   3.2513019892429E-03
(PID.TID 0000.0001) %MON dynstat_vvel_max             =   9.4244432993565E-02
(PID.TID 0000.0001) %MON dynstat_vvel_min             =  -1.0568944791906E-01
(PID.TID 0000.0001) %MON dynstat_vvel_mean            =   5.1564895544277E-03
(PID.TID 0000.0001) %MON dynstat_vvel_sd              =   1.5849828823741E-02
(PID.TID 0000.0001) %MON dynstat_vvel_del2            =   3.6614959768064E-03
(PID.TID 0000.0001) %MON dynstat_wvel_max             =   3.3353586626318E-04
(PID.TID 0000.0001) %MON dynstat_wvel_min             =  -3.7345509014435E-04
(PID.TID 0000.0001) %MON dynstat_wvel_mean            =   1.7419625278413E-21
(PID.TID 0000.0001) %MON dynstat_wvel_sd              =   3.9324351313762E-05
(PID.TID 0000.0001) %MON dynstat_wvel_del2            =   1.4353228295727E-05
(PID.TID 0000.0001) %MON dynstat_theta_max            =   2.9658224716121E+01
(PID.TID 0000.0001) %MON dynstat_theta_min            =  -2.0353181002063E+00
(PID.TID 0000.0001) %MON dynstat_theta_mean           =   3.6039629209126E+00
(PID.TID 0000.0001) %MON dynstat_theta_sd             =   4.3814523702888E+00
(PID.TID 0000.0001) %MON dynstat_theta_del2           =   1.4133112848354E-01
(PID.TID 0000.0001) %MON dynstat_salt_max             =   3.7441345491798E+01
(PID.TID 0000.0001) %MON dynstat_salt_min             =   2.9788514598536E+01
(PID.TID 0000.0001) %MON dynstat_salt_mean            =   3.4716725143949E+01
(PID.TID 0000.0001) %MON dynstat_salt_sd              =   2.9584489988485E-01
(PID.TID 0000.0001) %MON dynstat_salt_del2            =   2.5734084133149E-02
(PID.TID 0000.0001) %MON advcfl_uvel_max              =   1.8856813940104E-02
(PID.TID 0000.0001) %MON advcfl_vvel_max              =   1.0266882337859E-02
(PID.TID 0000.0001) %MON advcfl_wvel_max              =   2.1508811886985E-01
(PID.TID 0000.0001) %MON advcfl_W_hf_max              =   2.1059823321920E-01
(PID.TID 0000.0001) %MON pe_b_mean                    =   9.8349836751467E-05
(PID.TID 0000.0001) %MON ke_max                       =   6.6177441360539E-03
(PID.TID 0000.0001) %MON ke_mean                      =   2.0544969456456E-04
(PID.TID 0000.0001) %MON ke_vol                       =   1.3226782436723E+18
(PID.TID 0000.0001) %MON vort_r_min                   =  -3.7957105181246E-07
(PID.TID 0000.0001) %MON vort_r_max                   =   5.8076043380028E-07
(PID.TID 0000.0001) %MON vort_a_mean                  =  -2.5205769362016E-05
(PID.TID 0000.0001) %MON vort_a_sd                    =   7.3401891341811E-05
(PID.TID 0000.0001) %MON vort_p_mean                  =  -3.1758669517878E-05
(PID.TID 0000.0001) %MON vort_p_sd                    =   1.3126190975325E-04
(PID.TID 0000.0001) %MON surfExpan_theta_mean         =   1.6153799966031E-04
(PID.TID 0000.0001) %MON surfExpan_salt_mean          =   1.2267062989865E-05
(PID.TID 0000.0001) // =======================================================
(PID.TID 0000.0001) // End MONITOR dynamic field statistics
(PID.TID 0000.0001) // =======================================================
time,SST,SSS,fu,fv,Q,E-P,i0,i1,a,b =   4.3200E+05  3.5491E-01  3.4481E+01 -3.8878E-02 -6.1587E-02  2.6532E+02  0.0000E+00    12     1  6.6667E-01  3.3333E-01
time,fu0,fu1,fu =   4.3200E+05 -4.5368E-02 -3.5633E-02 -3.8878E-02  6.6667E-01  3.3333E-01
 cg2d: Sum(rhs),rhsMax =   1.99253807897648E-13  8.13787538473572E+00
(PID.TID 0000.0001)                    cg2d_init_res =    1.21764756088769E+00
(PID.TID 0000.0001)                       cg2d_iters =    25
(PID.TID 0000.0001)                         cg2d_res =    8.73112779654718E-14
(PID.TID 0000.0001) // =======================================================
(PID.TID 0000.0001) // Begin MONITOR dynamic field statistics
(PID.TID 0000.0001) // =======================================================
(PID.TID 0000.0001) %MON time_tsnumber                =                    11
(PID.TID 0000.0001) %MON time_secondsf                =   4.7520000000000E+05
(PID.TID 0000.0001) %MON dynstat_eta_max              =   9.5610500298100E-01
(PID.TID 0000.0001) %MON dynstat_eta_min              =  -9.2347738318009E-01
(PID.TID 0000.0001) %MON dynstat_eta_mean             =   7.9001778133880E-17
(PID.TID 0000.0001) %MON dynstat_eta_sd               =   2.9801988730907E-01
(PID.TID 0000.0001) %MON dynstat_eta_del2             =   2.4165557886083E-02
(PID.TID 0000.0001) %MON dynstat_uvel_max             =   1.2423150973066E-01
(PID.TID 0000.0001) %MON dynstat_uvel_min             =  -1.4212537732057E-01
(PID.TID 0000.0001) %MON dynstat_uvel_mean            =  -8.0714444027394E-03
(PID.TID 0000.0001) %MON dynstat_uvel_sd              =   1.2387262939717E-02
(PID.TID 0000.0001) %MON dynstat_uvel_del2            =   3.4894736146787E-03
(PID.TID 0000.0001) %MON dynstat_vvel_max             =   1.0267072707750E-01
(PID.TID 0000.0001) %MON dynstat_vvel_min             =  -1.1495449155366E-01
(PID.TID 0000.0001) %MON dynstat_vvel_mean            =   5.0702594306727E-03
(PID.TID 0000.0001) %MON dynstat_vvel_sd              =   1.5979352527300E-02
(PID.TID 0000.0001) %MON dynstat_vvel_del2            =   3.8841206684482E-03
(PID.TID 0000.0001) %MON dynstat_wvel_max             =   3.4118276964385E-04
(PID.TID 0000.0001) %MON dynstat_wvel_min             =  -3.9350646468461E-04
(PID.TID 0000.0001) %MON dynstat_wvel_mean            =  -9.9487415690109E-22
(PID.TID 0000.0001) %MON dynstat_wvel_sd              =   4.0324072934805E-05
(PID.TID 0000.0001) %MON dynstat_wvel_del2            =   1.4965131265781E-05
(PID.TID 0000.0001) %MON dynstat_theta_max            =   2.9631739620573E+01
(PID.TID 0000.0001) %MON dynstat_theta_min            =  -2.0399153178365E+00
(PID.TID 0000.0001) %MON dynstat_theta_mean           =   3.6023161772193E+00
(PID.TID 0000.0001) %MON dynstat_theta_sd             =   4.3771457404219E+00
(PID.TID 0000.0001) %MON dynstat_theta_del2           =   1.4043064964080E-01
(PID.TID 0000.0001) %MON dynstat_salt_max             =   3.7439433201862E+01
(PID.TID 0000.0001) %MON dynstat_salt_min             =   2.9790894406875E+01
(PID.TID 0000.0001) %MON dynstat_salt_mean            =   3.4716604361588E+01
(PID.TID 0000.0001) %MON dynstat_salt_sd              =   2.9578665584490E-01
(PID.TID 0000.0001) %MON dynstat_salt_del2            =   2.5656374169286E-02
(PID.TID 0000.0001) %MON advcfl_uvel_max              =   1.9785726203653E-02
(PID.TID 0000.0001) %MON advcfl_vvel_max              =   1.1166907030243E-02
(PID.TID 0000.0001) %MON advcfl_wvel_max              =   2.1779858057428E-01
(PID.TID 0000.0001) %MON advcfl_W_hf_max              =   2.0603406638274E-01
(PID.TID 0000.0001) %MON pe_b_mean                    =   1.1365058943619E-04
(PID.TID 0000.0001) %MON ke_max                       =   7.8966171296991E-03
(PID.TID 0000.0001) %MON ke_mean                      =   2.2548430614210E-04
(PID.TID 0000.0001) %MON ke_vol                       =   1.3226782436723E+18
(PID.TID 0000.0001) %MON vort_r_min                   =  -3.9933716855938E-07
(PID.TID 0000.0001) %MON vort_r_max                   =   6.5182433134292E-07
(PID.TID 0000.0001) %MON vort_a_mean                  =  -2.5205769425787E-05
(PID.TID 0000.0001) %MON vort_a_sd                    =   7.3401744646166E-05
(PID.TID 0000.0001) %MON vort_p_mean                  =  -3.1758669598227E-05
(PID.TID 0000.0001) %MON vort_p_sd                    =   1.3126128190073E-04
(PID.TID 0000.0001) %MON surfExpan_theta_mean         =   1.5383370580066E-04
(PID.TID 0000.0001) %MON surfExpan_salt_mean          =   1.1309640385237E-05
(PID.TID 0000.0001) // =======================================================
(PID.TID 0000.0001) // End MONITOR dynamic field statistics
(PID.TID 0000.0001) // =======================================================
time,SST,SSS,fu,fv,Q,E-P,i0,i1,a,b =   4.7520E+05  3.8508E-01  3.4492E+01 -3.8716E-02 -6.1371E-02  2.6534E+02  0.0000E+00    12     1  6.8333E-01  3.1667E-01
time,fu0,fu1,fu =   4.7520E+05 -4.5368E-02 -3.5633E-02 -3.8716E-02  6.8333E-01  3.1667E-01
 cg2d: Sum(rhs),rhsMax =   5.60549870409766E-14  8.14788871653525E+00
(PID.TID 0000.0001)                    cg2d_init_res =    1.17638061758654E+00
(PID.TID 0000.0001)                       cg2d_iters =    25
(PID.TID 0000.0001)                         cg2d_res =    8.27100366042113E-14
(PID.TID 0000.0001) // =======================================================
(PID.TID 0000.0001) // Begin MONITOR dynamic field statistics
(PID.TID 0000.0001) // =======================================================
(PID.TID 0000.0001) %MON time_tsnumber                =                    12
(PID.TID 0000.0001) %MON time_secondsf                =   5.1840000000000E+05
(PID.TID 0000.0001) %MON dynstat_eta_max              =   1.0074952809529E+00
(PID.TID 0000.0001) %MON dynstat_eta_min              =  -1.0456219087666E+00
(PID.TID 0000.0001) %MON dynstat_eta_mean             =   4.8438613906437E-17
(PID.TID 0000.0001) %MON dynstat_eta_sd               =   3.1679447258006E-01
(PID.TID 0000.0001) %MON dynstat_eta_del2             =   2.3412662740370E-02
(PID.TID 0000.0001) %MON dynstat_uvel_max             =   1.3434959297704E-01
(PID.TID 0000.0001) %MON dynstat_uvel_min             =  -1.5042032790358E-01
(PID.TID 0000.0001) %MON dynstat_uvel_mean            =  -8.7373307003610E-03
(PID.TID 0000.0001) %MON dynstat_uvel_sd              =   1.3561664814597E-02
(PID.TID 0000.0001) %MON dynstat_uvel_del2            =   3.7121775886335E-03
(PID.TID 0000.0001) %MON dynstat_vvel_max             =   1.0909702753803E-01
(PID.TID 0000.0001) %MON dynstat_vvel_min             =  -1.2299796209817E-01
(PID.TID 0000.0001) %MON dynstat_vvel_mean            =   4.8958448610793E-03
(PID.TID 0000.0001) %MON dynstat_vvel_sd              =   1.5995481883662E-02
(PID.TID 0000.0001) %MON dynstat_vvel_del2            =   4.0875317251543E-03
(PID.TID 0000.0001) %MON dynstat_wvel_max             =   3.4889557015636E-04
(PID.TID 0000.0001) %MON dynstat_wvel_min             =  -4.1226545755769E-04
(PID.TID 0000.0001) %MON dynstat_wvel_mean            =  -5.6660573253529E-22
(PID.TID 0000.0001) %MON dynstat_wvel_sd              =   4.1016284767797E-05
(PID.TID 0000.0001) %MON dynstat_wvel_del2            =   1.5439433044266E-05
(PID.TID 0000.0001) %MON dynstat_theta_max            =   2.9604817057475E+01
(PID.TID 0000.0001) %MON dynstat_theta_min            =  -2.0410855219121E+00
(PID.TID 0000.0001) %MON dynstat_theta_mean           =   3.6007932573729E+00
(PID.TID 0000.0001) %MON dynstat_theta_sd             =   4.3729551676931E+00
(PID.TID 0000.0001) %MON dynstat_theta_del2           =   1.3957805648999E-01
(PID.TID 0000.0001) %MON dynstat_salt_max             =   3.7437313117321E+01
(PID.TID 0000.0001) %MON dynstat_salt_min             =   2.9792878071387E+01
(PID.TID 0000.0001) %MON dynstat_salt_mean            =   3.4716497212704E+01
(PID.TID 0000.0001) %MON dynstat_salt_sd              =   2.9572488671074E-01
(PID.TID 0000.0001) %MON dynstat_salt_del2            =   2.5585432585345E-02
(PID.TID 0000.0001) %MON advcfl_uvel_max              =   2.3574391488344E-02
(PID.TID 0000.0001) %MON advcfl_vvel_max              =   1.1948265692763E-02
(PID.TID 0000.0001) %MON advcfl_wvel_max              =   2.1819616909153E-01
(PID.TID 0000.0001) %MON advcfl_W_hf_max              =   1.8945582097871E-01
(PID.TID 0000.0001) %MON pe_b_mean                    =   1.2842110161115E-04
(PID.TID 0000.0001) %MON ke_max                       =   9.2378762547374E-03
(PID.TID 0000.0001) %MON ke_mean                      =   2.4386551270202E-04
(PID.TID 0000.0001) %MON ke_vol                       =   1.3226782436723E+18
(PID.TID 0000.0001) %MON vort_r_min                   =  -4.0763666603829E-07
(PID.TID 0000.0001) %MON vort_r_max                   =   7.1290552974776E-07
(PID.TID 0000.0001) %MON vort_a_mean                  =  -2.5205769476608E-05
(PID.TID 0000.0001) %MON vort_a_sd                    =   7.3401615245771E-05
(PID.TID 0000.0001) %MON vort_p_mean                  =  -3.1758669662260E-05
(PID.TID 0000.0001) %MON vort_p_sd                    =   1.3126070388718E-04
(PID.TID 0000.0001) %MON surfExpan_theta_mean         =   1.4414352214402E-04
(PID.TID 0000.0001) %MON surfExpan_salt_mean          =   1.0192740010998E-05
(PID.TID 0000.0001) // =======================================================
(PID.TID 0000.0001) // End MONITOR dynamic field statistics
(PID.TID 0000.0001) // =======================================================
time,SST,SSS,fu,fv,Q,E-P,i0,i1,a,b =   5.1840E+05  4.1526E-01  3.4504E+01 -3.8553E-02 -6.1154E-02  2.6537E+02  0.0000E+00    12     1  7.0000E-01  3.0000E-01
time,fu0,fu1,fu =   5.1840E+05 -4.5368E-02 -3.5633E-02 -3.8553E-02  7.0000E-01  3.0000E-01
 cg2d: Sum(rhs),rhsMax =   4.12369791091827E-14  8.75897655452794E+00
(PID.TID 0000.0001)                    cg2d_init_res =    1.05920576293182E+00
(PID.TID 0000.0001)                       cg2d_iters =    25
(PID.TID 0000.0001)                         cg2d_res =    7.25210987990287E-14
(PID.TID 0000.0001) // =======================================================
(PID.TID 0000.0001) // Begin MONITOR dynamic field statistics
(PID.TID 0000.0001) // =======================================================
(PID.TID 0000.0001) %MON time_tsnumber                =                    13
(PID.TID 0000.0001) %MON time_secondsf                =   5.6160000000000E+05
(PID.TID 0000.0001) %MON dynstat_eta_max              =   1.0612829545239E+00
(PID.TID 0000.0001) %MON dynstat_eta_min              =  -1.1653293112422E+00
(PID.TID 0000.0001) %MON dynstat_eta_mean             =   1.8687229017250E-16
(PID.TID 0000.0001) %MON dynstat_eta_sd               =   3.3339719262203E-01
(PID.TID 0000.0001) %MON dynstat_eta_del2             =   2.2673870887820E-02
(PID.TID 0000.0001) %MON dynstat_uvel_max             =   1.4404834909188E-01
(PID.TID 0000.0001) %MON dynstat_uvel_min             =  -1.5498454381975E-01
(PID.TID 0000.0001) %MON dynstat_uvel_mean            =  -9.2875694555108E-03
(PID.TID 0000.0001) %MON dynstat_uvel_sd              =   1.4659495168684E-02
(PID.TID 0000.0001) %MON dynstat_uvel_del2            =   3.9196153165177E-03
(PID.TID 0000.0001) %MON dynstat_vvel_max             =   1.1511302164944E-01
(PID.TID 0000.0001) %MON dynstat_vvel_min             =  -1.2959861691202E-01
(PID.TID 0000.0001) %MON dynstat_vvel_mean            =   4.6511502524189E-03
(PID.TID 0000.0001) %MON dynstat_vvel_sd              =   1.5940318218163E-02
(PID.TID 0000.0001) %MON dynstat_vvel_del2            =   4.2693770790988E-03
(PID.TID 0000.0001) %MON dynstat_wvel_max             =   3.5504295575958E-04
(PID.TID 0000.0001) %MON dynstat_wvel_min             =  -4.3379769484514E-04
(PID.TID 0000.0001) %MON dynstat_wvel_mean            =  -1.7944101315451E-22
(PID.TID 0000.0001) %MON dynstat_wvel_sd              =   4.1437035347938E-05
(PID.TID 0000.0001) %MON dynstat_wvel_del2            =   1.5789013099211E-05
(PID.TID 0000.0001) %MON dynstat_theta_max            =   2.9576595204747E+01
(PID.TID 0000.0001) %MON dynstat_theta_min            =  -2.0394050925034E+00
(PID.TID 0000.0001) %MON dynstat_theta_mean           =   3.5994072651117E+00
(PID.TID 0000.0001) %MON dynstat_theta_sd             =   4.3689205827174E+00
(PID.TID 0000.0001) %MON dynstat_theta_del2           =   1.3880861731945E-01
(PID.TID 0000.0001) %MON dynstat_salt_max             =   3.7435093489310E+01
(PID.TID 0000.0001) %MON dynstat_salt_min             =   2.9794662480104E+01
(PID.TID 0000.0001) %MON dynstat_salt_mean            =   3.4716404418832E+01
(PID.TID 0000.0001) %MON dynstat_salt_sd              =   2.9566039145951E-01
(PID.TID 0000.0001) %MON dynstat_salt_del2            =   2.5522700832808E-02
(PID.TID 0000.0001) %MON advcfl_uvel_max              =   2.8361157493337E-02
(PID.TID 0000.0001) %MON advcfl_vvel_max              =   1.2589466377041E-02
(PID.TID 0000.0001) %MON advcfl_wvel_max              =   2.2481908658187E-01
(PID.TID 0000.0001) %MON advcfl_W_hf_max              =   1.9030767300178E-01
(PID.TID 0000.0001) %MON pe_b_mean                    =   1.4223454152641E-04
(PID.TID 0000.0001) %MON ke_max                       =   1.0616555645545E-02
(PID.TID 0000.0001) %MON ke_mean                      =   2.6060734247302E-04
(PID.TID 0000.0001) %MON ke_vol                       =   1.3226782436723E+18
(PID.TID 0000.0001) %MON vort_r_min                   =  -4.4248255377681E-07
(PID.TID 0000.0001) %MON vort_r_max                   =   7.6186072305213E-07
(PID.TID 0000.0001) %MON vort_a_mean                  =  -2.5205769508170E-05
(PID.TID 0000.0001) %MON vort_a_sd                    =   7.3401506117181E-05
(PID.TID 0000.0001) %MON vort_p_mean                  =  -3.1758669702028E-05
(PID.TID 0000.0001) %MON vort_p_sd                    =   1.3126019747987E-04
(PID.TID 0000.0001) %MON surfExpan_theta_mean         =   1.3296741887886E-04
(PID.TID 0000.0001) %MON surfExpan_salt_mean          =   8.9758489773729E-06
(PID.TID 0000.0001) // =======================================================
(PID.TID 0000.0001) // End MONITOR dynamic field statistics
(PID.TID 0000.0001) // =======================================================
time,SST,SSS,fu,fv,Q,E-P,i0,i1,a,b =   5.6160E+05  4.4544E-01  3.4516E+01 -3.8391E-02 -6.0938E-02  2.6539E+02  0.0000E+00    12     1  7.1667E-01  2.8333E-01
time,fu0,fu1,fu =   5.6160E+05 -4.5368E-02 -3.5633E-02 -3.8391E-02  7.1667E-01  2.8333E-01
 cg2d: Sum(rhs),rhsMax =   4.12918831071973E-13  9.51806764571326E+00
(PID.TID 0000.0001)                    cg2d_init_res =    9.45113260119202E-01
(PID.TID 0000.0001)                       cg2d_iters =    25
(PID.TID 0000.0001)                         cg2d_res =    6.20690420471110E-14
(PID.TID 0000.0001) // =======================================================
(PID.TID 0000.0001) // Begin MONITOR dynamic field statistics
(PID.TID 0000.0001) // =======================================================
(PID.TID 0000.0001) %MON time_tsnumber                =                    14
(PID.TID 0000.0001) %MON time_secondsf                =   6.0480000000000E+05
(PID.TID 0000.0001) %MON dynstat_eta_max              =   1.1485355435680E+00
(PID.TID 0000.0001) %MON dynstat_eta_min              =  -1.2548043026809E+00
(PID.TID 0000.0001) %MON dynstat_eta_mean             =   5.3410333610869E-17
(PID.TID 0000.0001) %MON dynstat_eta_sd               =   3.4773664888641E-01
(PID.TID 0000.0001) %MON dynstat_eta_del2             =   2.1998961311690E-02
(PID.TID 0000.0001) %MON dynstat_uvel_max             =   1.5328216187012E-01
(PID.TID 0000.0001) %MON dynstat_uvel_min             =  -1.5614301509586E-01
(PID.TID 0000.0001) %MON dynstat_uvel_mean            =  -9.7116381987772E-03
(PID.TID 0000.0001) %MON dynstat_uvel_sd              =   1.5671692324907E-02
(PID.TID 0000.0001) %MON dynstat_uvel_del2            =   4.1134681658670E-03
(PID.TID 0000.0001) %MON dynstat_vvel_max             =   1.2142408007299E-01
(PID.TID 0000.0001) %MON dynstat_vvel_min             =  -1.3456839281152E-01
(PID.TID 0000.0001) %MON dynstat_vvel_mean            =   4.3561212391120E-03
(PID.TID 0000.0001) %MON dynstat_vvel_sd              =   1.5851682332713E-02
(PID.TID 0000.0001) %MON dynstat_vvel_del2            =   4.4324655094176E-03
(PID.TID 0000.0001) %MON dynstat_wvel_max             =   3.6435773396527E-04
(PID.TID 0000.0001) %MON dynstat_wvel_min             =  -4.5417872256823E-04
(PID.TID 0000.0001) %MON dynstat_wvel_mean            =   4.9272248242927E-22
(PID.TID 0000.0001) %MON dynstat_wvel_sd              =   4.1623258046698E-05
(PID.TID 0000.0001) %MON dynstat_wvel_del2            =   1.6028652799389E-05
(PID.TID 0000.0001) %MON dynstat_theta_max            =   2.9551094168611E+01
(PID.TID 0000.0001) %MON dynstat_theta_min            =  -2.0351975023440E+00
(PID.TID 0000.0001) %MON dynstat_theta_mean           =   3.5981667106001E+00
(PID.TID 0000.0001) %MON dynstat_theta_sd             =   4.3650785577839E+00
(PID.TID 0000.0001) %MON dynstat_theta_del2           =   1.3811749497636E-01
(PID.TID 0000.0001) %MON dynstat_salt_max             =   3.7432983177770E+01
(PID.TID 0000.0001) %MON dynstat_salt_min             =   2.9796149611561E+01
(PID.TID 0000.0001) %MON dynstat_salt_mean            =   3.4716326194444E+01
(PID.TID 0000.0001) %MON dynstat_salt_sd              =   2.9559413105167E-01
(PID.TID 0000.0001) %MON dynstat_salt_del2            =   2.5466671737290E-02
(PID.TID 0000.0001) %MON advcfl_uvel_max              =   3.2411804031082E-02
(PID.TID 0000.0001) %MON advcfl_vvel_max              =   1.3072240252865E-02
(PID.TID 0000.0001) %MON advcfl_wvel_max              =   2.1573655509033E-01
(PID.TID 0000.0001) %MON advcfl_W_hf_max              =   1.8207111189941E-01
(PID.TID 0000.0001) %MON pe_b_mean                    =   1.5473270906786E-04
(PID.TID 0000.0001) %MON ke_max                       =   1.2003199982328E-02
(PID.TID 0000.0001) %MON ke_mean                      =   2.7575762859683E-04
(PID.TID 0000.0001) %MON ke_vol                       =   1.3226782436723E+18
(PID.TID 0000.0001) %MON vort_r_min                   =  -4.8129612415280E-07
(PID.TID 0000.0001) %MON vort_r_max                   =   7.9698723193220E-07
(PID.TID 0000.0001) %MON vort_a_mean                  =  -2.5205769517082E-05
(PID.TID 0000.0001) %MON vort_a_sd                    =   7.3401419396320E-05
(PID.TID 0000.0001) %MON vort_p_mean                  =  -3.1758669713256E-05
(PID.TID 0000.0001) %MON vort_p_sd                    =   1.3125977968143E-04
(PID.TID 0000.0001) %MON surfExpan_theta_mean         =   1.2074643194127E-04
(PID.TID 0000.0001) %MON surfExpan_salt_mean          =   7.7075901266065E-06
(PID.TID 0000.0001) // =======================================================
(PID.TID 0000.0001) // End MONITOR dynamic field statistics
(PID.TID 0000.0001) // =======================================================
time,SST,SSS,fu,fv,Q,E-P,i0,i1,a,b =   6.0480E+05  4.7561E-01  3.4527E+01 -3.8229E-02 -6.0721E-02  2.6541E+02  0.0000E+00    12     1  7.3333E-01  2.6667E-01
time,fu0,fu1,fu =   6.0480E+05 -4.5368E-02 -3.5633E-02 -3.8229E-02  7.3333E-01  2.6667E-01
 cg2d: Sum(rhs),rhsMax =   1.08753284155938E-13  1.00868019718989E+01
(PID.TID 0000.0001)                    cg2d_init_res =    8.67243369812957E-01
(PID.TID 0000.0001)                       cg2d_iters =    25
(PID.TID 0000.0001)                         cg2d_res =    5.35793844782717E-14
(PID.TID 0000.0001) // =======================================================
(PID.TID 0000.0001) // Begin MONITOR dynamic field statistics
(PID.TID 0000.0001) // =======================================================
(PID.TID 0000.0001) %MON time_tsnumber                =                    15
(PID.TID 0000.0001) %MON time_secondsf                =   6.4800000000000E+05
(PID.TID 0000.0001) %MON dynstat_eta_max              =   1.2150971531379E+00
(PID.TID 0000.0001) %MON dynstat_eta_min              =  -1.3020601585044E+00
(PID.TID 0000.0001) %MON dynstat_eta_mean             =  -2.5315569046708E-17
(PID.TID 0000.0001) %MON dynstat_eta_sd               =   3.5979595368228E-01
(PID.TID 0000.0001) %MON dynstat_eta_del2             =   2.1424787964468E-02
(PID.TID 0000.0001) %MON dynstat_uvel_max             =   1.6200762688573E-01
(PID.TID 0000.0001) %MON dynstat_uvel_min             =  -1.5433012197518E-01
(PID.TID 0000.0001) %MON dynstat_uvel_mean            =  -1.0004445957394E-02
(PID.TID 0000.0001) %MON dynstat_uvel_sd              =   1.6593270476420E-02
(PID.TID 0000.0001) %MON dynstat_uvel_del2            =   4.2923918439612E-03
(PID.TID 0000.0001) %MON dynstat_vvel_max             =   1.3606226549395E-01
(PID.TID 0000.0001) %MON dynstat_vvel_min             =  -1.3776614223560E-01
(PID.TID 0000.0001) %MON dynstat_vvel_mean            =   4.0315328910467E-03
(PID.TID 0000.0001) %MON dynstat_vvel_sd              =   1.5760333002216E-02
(PID.TID 0000.0001) %MON dynstat_vvel_del2            =   4.5770307731633E-03
(PID.TID 0000.0001) %MON dynstat_wvel_max             =   3.7148197433611E-04
(PID.TID 0000.0001) %MON dynstat_wvel_min             =  -4.7123660237785E-04
(PID.TID 0000.0001) %MON dynstat_wvel_mean            =  -1.3235792172588E-21
(PID.TID 0000.0001) %MON dynstat_wvel_sd              =   4.1606746877917E-05
(PID.TID 0000.0001) %MON dynstat_wvel_del2            =   1.6167259552914E-05
(PID.TID 0000.0001) %MON dynstat_theta_max            =   2.9542395231782E+01
(PID.TID 0000.0001) %MON dynstat_theta_min            =  -2.0208385279167E+00
(PID.TID 0000.0001) %MON dynstat_theta_mean           =   3.5970761800442E+00
(PID.TID 0000.0001) %MON dynstat_theta_sd             =   4.3614662348294E+00
(PID.TID 0000.0001) %MON dynstat_theta_del2           =   1.3751023821119E-01
(PID.TID 0000.0001) %MON dynstat_salt_max             =   3.7430915336348E+01
(PID.TID 0000.0001) %MON dynstat_salt_min             =   2.9797349653746E+01
(PID.TID 0000.0001) %MON dynstat_salt_mean            =   3.4716262412579E+01
(PID.TID 0000.0001) %MON dynstat_salt_sd              =   2.9552851351382E-01
(PID.TID 0000.0001) %MON dynstat_salt_del2            =   2.5416727677680E-02
(PID.TID 0000.0001) %MON advcfl_uvel_max              =   3.5305134337885E-02
(PID.TID 0000.0001) %MON advcfl_vvel_max              =   1.3382875966548E-02
(PID.TID 0000.0001) %MON advcfl_wvel_max              =   1.9084898054790E-01
(PID.TID 0000.0001) %MON advcfl_W_hf_max              =   1.5963714451267E-01
(PID.TID 0000.0001) %MON pe_b_mean                    =   1.6565088099413E-04
(PID.TID 0000.0001) %MON ke_max                       =   1.3368001581506E-02
(PID.TID 0000.0001) %MON ke_mean                      =   2.8937062052359E-04
(PID.TID 0000.0001) %MON ke_vol                       =   1.3226782436723E+18
(PID.TID 0000.0001) %MON vort_r_min                   =  -5.1855959119914E-07
(PID.TID 0000.0001) %MON vort_r_max                   =   8.1700956517120E-07
(PID.TID 0000.0001) %MON vort_a_mean                  =  -2.5205769502932E-05
(PID.TID 0000.0001) %MON vort_a_sd                    =   7.3401356308204E-05
(PID.TID 0000.0001) %MON vort_p_mean                  =  -3.1758669695428E-05
(PID.TID 0000.0001) %MON vort_p_sd                    =   1.3125946107041E-04
(PID.TID 0000.0001) %MON surfExpan_theta_mean         =   1.0787932043392E-04
(PID.TID 0000.0001) %MON surfExpan_salt_mean          =   6.4304429642116E-06
(PID.TID 0000.0001) // =======================================================
(PID.TID 0000.0001) // End MONITOR dynamic field statistics
(PID.TID 0000.0001) // =======================================================
time,SST,SSS,fu,fv,Q,E-P,i0,i1,a,b =   6.4800E+05  5.0579E-01  3.4539E+01 -3.8067E-02 -6.0505E-02  2.6543E+02  0.0000E+00    12     1  7.5000E-01  2.5000E-01
time,fu0,fu1,fu =   6.4800E+05 -4.5368E-02 -3.5633E-02 -3.8067E-02  7.5000E-01  2.5000E-01
 cg2d: Sum(rhs),rhsMax =   1.53514354006568E-13  1.04478985847005E+01
(PID.TID 0000.0001)                    cg2d_init_res =    8.17030634109378E-01
(PID.TID 0000.0001)                       cg2d_iters =    25
(PID.TID 0000.0001)                         cg2d_res =    4.55836331914184E-14
(PID.TID 0000.0001) // =======================================================
(PID.TID 0000.0001) // Begin MONITOR dynamic field statistics
(PID.TID 0000.0001) // =======================================================
(PID.TID 0000.0001) %MON time_tsnumber                =                    16
(PID.TID 0000.0001) %MON time_secondsf                =   6.9120000000000E+05
(PID.TID 0000.0001) %MON dynstat_eta_max              =   1.2574087867096E+00
(PID.TID 0000.0001) %MON dynstat_eta_min              =  -1.3029341329707E+00
(PID.TID 0000.0001) %MON dynstat_eta_mean             =   1.9454761942808E-16
(PID.TID 0000.0001) %MON dynstat_eta_sd               =   3.6963059737401E-01
(PID.TID 0000.0001) %MON dynstat_eta_del2             =   2.0994893064807E-02
(PID.TID 0000.0001) %MON dynstat_uvel_max             =   1.7017960994859E-01
(PID.TID 0000.0001) %MON dynstat_uvel_min             =  -1.5000525549260E-01
(PID.TID 0000.0001) %MON dynstat_uvel_mean            =  -1.0166170665766E-02
(PID.TID 0000.0001) %MON dynstat_uvel_sd              =   1.7422645981221E-02
(PID.TID 0000.0001) %MON dynstat_uvel_del2            =   4.4555740808848E-03
(PID.TID 0000.0001) %MON dynstat_vvel_max             =   1.4856730985174E-01
(PID.TID 0000.0001) %MON dynstat_vvel_min             =  -1.3910729942227E-01
(PID.TID 0000.0001) %MON dynstat_vvel_mean            =   3.6977192111901E-03
(PID.TID 0000.0001) %MON dynstat_vvel_sd              =   1.5688019277599E-02
(PID.TID 0000.0001) %MON dynstat_vvel_del2            =   4.7063314222348E-03
(PID.TID 0000.0001) %MON dynstat_wvel_max             =   3.7674129370981E-04
(PID.TID 0000.0001) %MON dynstat_wvel_min             =  -4.8523896918472E-04
(PID.TID 0000.0001) %MON dynstat_wvel_mean            =  -5.6821253510117E-22
(PID.TID 0000.0001) %MON dynstat_wvel_sd              =   4.1413500209339E-05
(PID.TID 0000.0001) %MON dynstat_wvel_del2            =   1.6220031117622E-05
(PID.TID 0000.0001) %MON dynstat_theta_max            =   2.9526691834252E+01
(PID.TID 0000.0001) %MON dynstat_theta_min            =  -1.9919559327368E+00
(PID.TID 0000.0001) %MON dynstat_theta_mean           =   3.5961364899673E+00
(PID.TID 0000.0001) %MON dynstat_theta_sd             =   4.3581146580667E+00
(PID.TID 0000.0001) %MON dynstat_theta_del2           =   1.3697217575082E-01
(PID.TID 0000.0001) %MON dynstat_salt_max             =   3.7428927415916E+01
(PID.TID 0000.0001) %MON dynstat_salt_min             =   2.9798282398952E+01
(PID.TID 0000.0001) %MON dynstat_salt_mean            =   3.4716212608049E+01
(PID.TID 0000.0001) %MON dynstat_salt_sd              =   2.9546409490767E-01
(PID.TID 0000.0001) %MON dynstat_salt_del2            =   2.5374118701295E-02
(PID.TID 0000.0001) %MON advcfl_uvel_max              =   3.6689459994249E-02
(PID.TID 0000.0001) %MON advcfl_vvel_max              =   1.4432122785504E-02
(PID.TID 0000.0001) %MON advcfl_wvel_max              =   1.7538773735934E-01
(PID.TID 0000.0001) %MON advcfl_W_hf_max              =   1.4544114860070E-01
(PID.TID 0000.0001) %MON pe_b_mean                    =   1.7483043112241E-04
(PID.TID 0000.0001) %MON ke_max                       =   1.4684231750536E-02
(PID.TID 0000.0001) %MON ke_mean                      =   3.0149046191487E-04
(PID.TID 0000.0001) %MON ke_vol                       =   1.3226782436723E+18
(PID.TID 0000.0001) %MON vort_r_min                   =  -5.5363633372215E-07
(PID.TID 0000.0001) %MON vort_r_max                   =   8.2105396603123E-07
(PID.TID 0000.0001) %MON vort_a_mean                  =  -2.5205769467976E-05
(PID.TID 0000.0001) %MON vort_a_sd                    =   7.3401317166086E-05
(PID.TID 0000.0001) %MON vort_p_mean                  =  -3.1758669651385E-05
(PID.TID 0000.0001) %MON vort_p_sd                    =   1.3125924520562E-04
(PID.TID 0000.0001) %MON surfExpan_theta_mean         =   9.4716240039036E-05
(PID.TID 0000.0001) %MON surfExpan_salt_mean          =   5.1751027635158E-06
(PID.TID 0000.0001) // =======================================================
(PID.TID 0000.0001) // End MONITOR dynamic field statistics
(PID.TID 0000.0001) // =======================================================
time,SST,SSS,fu,fv,Q,E-P,i0,i1,a,b =   6.9120E+05  5.3596E-01  3.4551E+01 -3.7904E-02 -6.0288E-02  2.6546E+02  0.0000E+00    12     1  7.6667E-01  2.3333E-01
time,fu0,fu1,fu =   6.9120E+05 -4.5368E-02 -3.5633E-02 -3.7904E-02  7.6667E-01  2.3333E-01
 cg2d: Sum(rhs),rhsMax =   1.99819327750816E-13  1.05953427007009E+01
(PID.TID 0000.0001)                    cg2d_init_res =    7.88731651145148E-01
(PID.TID 0000.0001)                       cg2d_iters =    25
(PID.TID 0000.0001)                         cg2d_res =    3.90314304910886E-14
(PID.TID 0000.0001) // =======================================================
(PID.TID 0000.0001) // Begin MONITOR dynamic field statistics
(PID.TID 0000.0001) // =======================================================
(PID.TID 0000.0001) %MON time_tsnumber                =                    17
(PID.TID 0000.0001) %MON time_secondsf                =   7.3440000000000E+05
(PID.TID 0000.0001) %MON dynstat_eta_max              =   1.2748707834715E+00
(PID.TID 0000.0001) %MON dynstat_eta_min              =  -1.2907216572224E+00
(PID.TID 0000.0001) %MON dynstat_eta_mean             =  -1.9467768902609E-16
(PID.TID 0000.0001) %MON dynstat_eta_sd               =   3.7736014294354E-01
(PID.TID 0000.0001) %MON dynstat_eta_del2             =   2.0524467239034E-02
(PID.TID 0000.0001) %MON dynstat_uvel_max             =   1.7774490652105E-01
(PID.TID 0000.0001) %MON dynstat_uvel_min             =  -1.4926336333062E-01
(PID.TID 0000.0001) %MON dynstat_uvel_mean            =  -1.0201740744192E-02
(PID.TID 0000.0001) %MON dynstat_uvel_sd              =   1.8160924516491E-02
(PID.TID 0000.0001) %MON dynstat_uvel_del2            =   4.6020511546106E-03
(PID.TID 0000.0001) %MON dynstat_vvel_max             =   1.5778040583614E-01
(PID.TID 0000.0001) %MON dynstat_vvel_min             =  -1.3918944812029E-01
(PID.TID 0000.0001) %MON dynstat_vvel_mean            =   3.3734526924482E-03
(PID.TID 0000.0001) %MON dynstat_vvel_sd              =   1.5646817356153E-02
(PID.TID 0000.0001) %MON dynstat_vvel_del2            =   4.8209120996768E-03
(PID.TID 0000.0001) %MON dynstat_wvel_max             =   3.8030664387969E-04
(PID.TID 0000.0001) %MON dynstat_wvel_min             =  -4.9520204350309E-04
(PID.TID 0000.0001) %MON dynstat_wvel_mean            =   2.6615215737060E-22
(PID.TID 0000.0001) %MON dynstat_wvel_sd              =   4.1066129323036E-05
(PID.TID 0000.0001) %MON dynstat_wvel_del2            =   1.6200425489343E-05
(PID.TID 0000.0001) %MON dynstat_theta_max            =   2.9503598297216E+01
(PID.TID 0000.0001) %MON dynstat_theta_min            =  -1.9537478546538E+00
(PID.TID 0000.0001) %MON dynstat_theta_mean           =   3.5953452921984E+00
(PID.TID 0000.0001) %MON dynstat_theta_sd             =   4.3550514732741E+00
(PID.TID 0000.0001) %MON dynstat_theta_del2           =   1.3650083139814E-01
(PID.TID 0000.0001) %MON dynstat_salt_max             =   3.7427216109477E+01
(PID.TID 0000.0001) %MON dynstat_salt_min             =   2.9798974427378E+01
(PID.TID 0000.0001) %MON dynstat_salt_mean            =   3.4716176125562E+01
(PID.TID 0000.0001) %MON dynstat_salt_sd              =   2.9540165448464E-01
(PID.TID 0000.0001) %MON dynstat_salt_del2            =   2.5338743470549E-02
(PID.TID 0000.0001) %MON advcfl_uvel_max              =   3.6321893762213E-02
(PID.TID 0000.0001) %MON advcfl_vvel_max              =   1.5327101180241E-02
(PID.TID 0000.0001) %MON advcfl_wvel_max              =   1.8233824504565E-01
(PID.TID 0000.0001) %MON advcfl_W_hf_max              =   1.4646709450425E-01
(PID.TID 0000.0001) %MON pe_b_mean                    =   1.8221883079546E-04
(PID.TID 0000.0001) %MON ke_max                       =   1.5930332432260E-02
(PID.TID 0000.0001) %MON ke_mean                      =   3.1214571810573E-04
(PID.TID 0000.0001) %MON ke_vol                       =   1.3226782436723E+18
(PID.TID 0000.0001) %MON vort_r_min                   =  -5.8595818743625E-07
(PID.TID 0000.0001) %MON vort_r_max                   =   8.0862426195904E-07
(PID.TID 0000.0001) %MON vort_a_mean                  =  -2.5205769416497E-05
(PID.TID 0000.0001) %MON vort_a_sd                    =   7.3401301437799E-05
(PID.TID 0000.0001) %MON vort_p_mean                  =  -3.1758669586522E-05
(PID.TID 0000.0001) %MON vort_p_sd                    =   1.3125912904933E-04
(PID.TID 0000.0001) %MON surfExpan_theta_mean         =   8.1561450868193E-05
(PID.TID 0000.0001) %MON surfExpan_salt_mean          =   3.9638057913587E-06
(PID.TID 0000.0001) // =======================================================
(PID.TID 0000.0001) // End MONITOR dynamic field statistics
(PID.TID 0000.0001) // =======================================================
time,SST,SSS,fu,fv,Q,E-P,i0,i1,a,b =   7.3440E+05  5.6614E-01  3.4563E+01 -3.7742E-02 -6.0072E-02  2.6548E+02  0.0000E+00    12     1  7.8333E-01  2.1667E-01
time,fu0,fu1,fu =   7.3440E+05 -4.5368E-02 -3.5633E-02 -3.7742E-02  7.8333E-01  2.1667E-01
 cg2d: Sum(rhs),rhsMax =  -1.81420850564606E-13  1.05352089710680E+01
(PID.TID 0000.0001)                    cg2d_init_res =    7.78419646014583E-01
(PID.TID 0000.0001)                       cg2d_iters =    24
(PID.TID 0000.0001)                         cg2d_res =    8.31053252155784E-14
(PID.TID 0000.0001) // =======================================================
(PID.TID 0000.0001) // Begin MONITOR dynamic field statistics
(PID.TID 0000.0001) // =======================================================
(PID.TID 0000.0001) %MON time_tsnumber                =                    18
(PID.TID 0000.0001) %MON time_secondsf                =   7.7760000000000E+05
(PID.TID 0000.0001) %MON dynstat_eta_max              =   1.2682928986697E+00
(PID.TID 0000.0001) %MON dynstat_eta_min              =  -1.3239455285751E+00
(PID.TID 0000.0001) %MON dynstat_eta_mean             =   8.2429989844202E-17
(PID.TID 0000.0001) %MON dynstat_eta_sd               =   3.8315591377906E-01
(PID.TID 0000.0001) %MON dynstat_eta_del2             =   2.0036445924685E-02
(PID.TID 0000.0001) %MON dynstat_uvel_max             =   1.8463748835925E-01
(PID.TID 0000.0001) %MON dynstat_uvel_min             =  -1.4757367224271E-01
(PID.TID 0000.0001) %MON dynstat_uvel_mean            =  -1.0120072834446E-02
(PID.TID 0000.0001) %MON dynstat_uvel_sd              =   1.8811088869711E-02
(PID.TID 0000.0001) %MON dynstat_uvel_del2            =   4.7333773572675E-03
(PID.TID 0000.0001) %MON dynstat_vvel_max             =   1.6303094450925E-01
(PID.TID 0000.0001) %MON dynstat_vvel_min             =  -1.4241239671449E-01
(PID.TID 0000.0001) %MON dynstat_vvel_mean            =   3.0750088829382E-03
(PID.TID 0000.0001) %MON dynstat_vvel_sd              =   1.5639969006045E-02
(PID.TID 0000.0001) %MON dynstat_vvel_del2            =   4.9225562291280E-03
(PID.TID 0000.0001) %MON dynstat_wvel_max             =   3.8222622902391E-04
(PID.TID 0000.0001) %MON dynstat_wvel_min             =  -5.0146848433148E-04
(PID.TID 0000.0001) %MON dynstat_wvel_mean            =   5.8988271867962E-22
(PID.TID 0000.0001) %MON dynstat_wvel_sd              =   4.0586442208631E-05
(PID.TID 0000.0001) %MON dynstat_wvel_del2            =   1.6102841661771E-05
(PID.TID 0000.0001) %MON dynstat_theta_max            =   2.9473499848589E+01
(PID.TID 0000.0001) %MON dynstat_theta_min            =  -1.9379241278865E+00
(PID.TID 0000.0001) %MON dynstat_theta_mean           =   3.5946974793865E+00
(PID.TID 0000.0001) %MON dynstat_theta_sd             =   4.3523010094160E+00
(PID.TID 0000.0001) %MON dynstat_theta_del2           =   1.3609174194626E-01
(PID.TID 0000.0001) %MON dynstat_salt_max             =   3.7425735813509E+01
(PID.TID 0000.0001) %MON dynstat_salt_min             =   2.9799457938398E+01
(PID.TID 0000.0001) %MON dynstat_salt_mean            =   3.4716152148632E+01
(PID.TID 0000.0001) %MON dynstat_salt_sd              =   2.9534132500170E-01
(PID.TID 0000.0001) %MON dynstat_salt_del2            =   2.5309663478479E-02
(PID.TID 0000.0001) %MON advcfl_uvel_max              =   3.4101498369909E-02
(PID.TID 0000.0001) %MON advcfl_vvel_max              =   1.5837148908076E-02
(PID.TID 0000.0001) %MON advcfl_wvel_max              =   1.8821404242862E-01
(PID.TID 0000.0001) %MON advcfl_W_hf_max              =   1.5172403566477E-01
(PID.TID 0000.0001) %MON pe_b_mean                    =   1.8785911246920E-04
(PID.TID 0000.0001) %MON ke_max                       =   1.7090661925850E-02
(PID.TID 0000.0001) %MON ke_mean                      =   3.2135230751758E-04
(PID.TID 0000.0001) %MON ke_vol                       =   1.3226782436723E+18
(PID.TID 0000.0001) %MON vort_r_min                   =  -6.1505833352646E-07
(PID.TID 0000.0001) %MON vort_r_max                   =   7.7959667311748E-07
(PID.TID 0000.0001) %MON vort_a_mean                  =  -2.5205769353998E-05
(PID.TID 0000.0001) %MON vort_a_sd                    =   7.3401307861881E-05
(PID.TID 0000.0001) %MON vort_p_mean                  =  -3.1758669507775E-05
(PID.TID 0000.0001) %MON vort_p_sd                    =   1.3125910421000E-04
(PID.TID 0000.0001) %MON surfExpan_theta_mean         =   6.8708508033698E-05
(PID.TID 0000.0001) %MON surfExpan_salt_mean          =   2.8182211728180E-06
(PID.TID 0000.0001) // =======================================================
(PID.TID 0000.0001) // End MONITOR dynamic field statistics
(PID.TID 0000.0001) // =======================================================
time,SST,SSS,fu,fv,Q,E-P,i0,i1,a,b =   7.7760E+05  5.9632E-01  3.4574E+01 -3.7580E-02 -5.9855E-02  2.6550E+02  0.0000E+00    12     1  8.0000E-01  2.0000E-01
time,fu0,fu1,fu =   7.7760E+05 -4.5368E-02 -3.5633E-02 -3.7580E-02  8.0000E-01  2.0000E-01
 cg2d: Sum(rhs),rhsMax =   5.76047889944142E-13  1.02854226332886E+01
(PID.TID 0000.0001)                    cg2d_init_res =    7.83476919431370E-01
(PID.TID 0000.0001)                       cg2d_iters =    25
(PID.TID 0000.0001)                         cg2d_res =    2.89423841294244E-14
(PID.TID 0000.0001) // =======================================================
(PID.TID 0000.0001) // Begin MONITOR dynamic field statistics
(PID.TID 0000.0001) // =======================================================
(PID.TID 0000.0001) %MON time_tsnumber                =                    19
(PID.TID 0000.0001) %MON time_secondsf                =   8.2080000000000E+05
(PID.TID 0000.0001) %MON dynstat_eta_max              =   1.2398174595449E+00
(PID.TID 0000.0001) %MON dynstat_eta_min              =  -1.3183821530426E+00
(PID.TID 0000.0001) %MON dynstat_eta_mean             =  -7.0846894805063E-17
(PID.TID 0000.0001) %MON dynstat_eta_sd               =   3.8722682638950E-01
(PID.TID 0000.0001) %MON dynstat_eta_del2             =   1.9596433461706E-02
(PID.TID 0000.0001) %MON dynstat_uvel_max             =   1.9077797688964E-01
(PID.TID 0000.0001) %MON dynstat_uvel_min             =  -1.4695700606195E-01
(PID.TID 0000.0001) %MON dynstat_uvel_mean            =  -9.9331473157803E-03
(PID.TID 0000.0001) %MON dynstat_uvel_sd              =   1.9377113959396E-02
(PID.TID 0000.0001) %MON dynstat_uvel_del2            =   4.8477814234585E-03
(PID.TID 0000.0001) %MON dynstat_vvel_max             =   1.6383021687988E-01
(PID.TID 0000.0001) %MON dynstat_vvel_min             =  -1.4406034908049E-01
(PID.TID 0000.0001) %MON dynstat_vvel_mean            =   2.8155160038791E-03
(PID.TID 0000.0001) %MON dynstat_vvel_sd              =   1.5664007614983E-02
(PID.TID 0000.0001) %MON dynstat_vvel_del2            =   5.0117912561886E-03
(PID.TID 0000.0001) %MON dynstat_wvel_max             =   3.8248372230435E-04
(PID.TID 0000.0001) %MON dynstat_wvel_min             =  -5.0420800937610E-04
(PID.TID 0000.0001) %MON dynstat_wvel_mean            =  -1.6077045032480E-22
(PID.TID 0000.0001) %MON dynstat_wvel_sd              =   3.9996481745480E-05
(PID.TID 0000.0001) %MON dynstat_wvel_del2            =   1.5933719919110E-05
(PID.TID 0000.0001) %MON dynstat_theta_max            =   2.9456764360606E+01
(PID.TID 0000.0001) %MON dynstat_theta_min            =  -1.9330911314224E+00
(PID.TID 0000.0001) %MON dynstat_theta_mean           =   3.5941849907558E+00
(PID.TID 0000.0001) %MON dynstat_theta_sd             =   4.3498819048621E+00
(PID.TID 0000.0001) %MON dynstat_theta_del2           =   1.3573594938239E-01
(PID.TID 0000.0001) %MON dynstat_salt_max             =   3.7424439547495E+01
(PID.TID 0000.0001) %MON dynstat_salt_min             =   2.9799768784671E+01
(PID.TID 0000.0001) %MON dynstat_salt_mean            =   3.4716139638927E+01
(PID.TID 0000.0001) %MON dynstat_salt_sd              =   2.9528453674836E-01
(PID.TID 0000.0001) %MON dynstat_salt_del2            =   2.5286825518985E-02
(PID.TID 0000.0001) %MON advcfl_uvel_max              =   3.0090570677293E-02
(PID.TID 0000.0001) %MON advcfl_vvel_max              =   1.5914791809489E-02
(PID.TID 0000.0001) %MON advcfl_wvel_max              =   1.8863404682771E-01
(PID.TID 0000.0001) %MON advcfl_W_hf_max              =   1.6361082414500E-01
(PID.TID 0000.0001) %MON pe_b_mean                    =   1.9187220823825E-04
(PID.TID 0000.0001) %MON ke_max                       =   1.8155266442063E-02
(PID.TID 0000.0001) %MON ke_mean                      =   3.2912116540452E-04
(PID.TID 0000.0001) %MON ke_vol                       =   1.3226782436723E+18
(PID.TID 0000.0001) %MON vort_r_min                   =  -6.4060539698544E-07
(PID.TID 0000.0001) %MON vort_r_max                   =   7.3424408046061E-07
(PID.TID 0000.0001) %MON vort_a_mean                  =  -2.5205769286434E-05
(PID.TID 0000.0001) %MON vort_a_sd                    =   7.3401334597838E-05
(PID.TID 0000.0001) %MON vort_p_mean                  =  -3.1758669422646E-05
(PID.TID 0000.0001) %MON vort_p_sd                    =   1.3125915856390E-04
(PID.TID 0000.0001) %MON surfExpan_theta_mean         =   5.6384733655038E-05
(PID.TID 0000.0001) %MON surfExpan_salt_mean          =   1.7477639438453E-06
(PID.TID 0000.0001) // =======================================================
(PID.TID 0000.0001) // End MONITOR dynamic field statistics
(PID.TID 0000.0001) // =======================================================
time,SST,SSS,fu,fv,Q,E-P,i0,i1,a,b =   8.2080E+05  6.2649E-01  3.4586E+01 -3.7418E-02 -5.9638E-02  2.6552E+02  0.0000E+00    12     1  8.1667E-01  1.8333E-01
time,fu0,fu1,fu =   8.2080E+05 -4.5368E-02 -3.5633E-02 -3.7418E-02  8.1667E-01  1.8333E-01
 cg2d: Sum(rhs),rhsMax =  -2.90932208879546E-13  9.89942675036043E+00
(PID.TID 0000.0001)                    cg2d_init_res =    8.00116484606212E-01
(PID.TID 0000.0001)                       cg2d_iters =    25
(PID.TID 0000.0001)                         cg2d_res =    2.72752547860265E-14
(PID.TID 0000.0001) // =======================================================
(PID.TID 0000.0001) // Begin MONITOR dynamic field statistics
(PID.TID 0000.0001) // =======================================================
(PID.TID 0000.0001) %MON time_tsnumber                =                    20
(PID.TID 0000.0001) %MON time_secondsf                =   8.6400000000000E+05
(PID.TID 0000.0001) %MON dynstat_eta_max              =   1.1926923736769E+00
(PID.TID 0000.0001) %MON dynstat_eta_min              =  -1.2768092051012E+00
(PID.TID 0000.0001) %MON dynstat_eta_mean             =  -6.3721930292981E-17
(PID.TID 0000.0001) %MON dynstat_eta_sd               =   3.8980465941079E-01
(PID.TID 0000.0001) %MON dynstat_eta_del2             =   1.9264993299030E-02
(PID.TID 0000.0001) %MON dynstat_uvel_max             =   1.9607684174505E-01
(PID.TID 0000.0001) %MON dynstat_uvel_min             =  -1.5362269427030E-01
(PID.TID 0000.0001) %MON dynstat_uvel_mean            =  -9.6550727848134E-03
(PID.TID 0000.0001) %MON dynstat_uvel_sd              =   1.9863128535566E-02
(PID.TID 0000.0001) %MON dynstat_uvel_del2            =   4.9480477137852E-03
(PID.TID 0000.0001) %MON dynstat_vvel_max             =   1.5990981411105E-01
(PID.TID 0000.0001) %MON dynstat_vvel_min             =  -1.4412949998144E-01
(PID.TID 0000.0001) %MON dynstat_vvel_mean            =   2.6046033280191E-03
(PID.TID 0000.0001) %MON dynstat_vvel_sd              =   1.5711596528651E-02
(PID.TID 0000.0001) %MON dynstat_vvel_del2            =   5.0886232088272E-03
(PID.TID 0000.0001) %MON dynstat_wvel_max             =   3.8105314179453E-04
(PID.TID 0000.0001) %MON dynstat_wvel_min             =  -5.0340447640347E-04
(PID.TID 0000.0001) %MON dynstat_wvel_mean            =  -6.9888141284901E-22
(PID.TID 0000.0001) %MON dynstat_wvel_sd              =   3.9318461465322E-05
(PID.TID 0000.0001) %MON dynstat_wvel_del2            =   1.5713230341129E-05
(PID.TID 0000.0001) %MON dynstat_theta_max            =   2.9453918402037E+01
(PID.TID 0000.0001) %MON dynstat_theta_min            =  -1.9299555986822E+00
(PID.TID 0000.0001) %MON dynstat_theta_mean           =   3.5937981101093E+00
(PID.TID 0000.0001) %MON dynstat_theta_sd             =   4.3478065678656E+00
(PID.TID 0000.0001) %MON dynstat_theta_del2           =   1.3543815402803E-01
(PID.TID 0000.0001) %MON dynstat_salt_max             =   3.7423271958535E+01
(PID.TID 0000.0001) %MON dynstat_salt_min             =   2.9799944615082E+01
(PID.TID 0000.0001) %MON dynstat_salt_mean            =   3.4716137532839E+01
(PID.TID 0000.0001) %MON dynstat_salt_sd              =   2.9523128997683E-01
(PID.TID 0000.0001) %MON dynstat_salt_del2            =   2.5269135849850E-02
(PID.TID 0000.0001) %MON advcfl_uvel_max              =   3.0382304881550E-02
(PID.TID 0000.0001) %MON advcfl_vvel_max              =   1.5533956118348E-02
(PID.TID 0000.0001) %MON advcfl_wvel_max              =   1.8316814029411E-01
(PID.TID 0000.0001) %MON advcfl_W_hf_max              =   1.6675219063115E-01
(PID.TID 0000.0001) %MON pe_b_mean                    =   1.9443536164476E-04
(PID.TID 0000.0001) %MON ke_max                       =   1.9119040349507E-02
(PID.TID 0000.0001) %MON ke_mean                      =   3.3546802331653E-04
(PID.TID 0000.0001) %MON ke_vol                       =   1.3226782436723E+18
(PID.TID 0000.0001) %MON vort_r_min                   =  -6.6243243101589E-07
(PID.TID 0000.0001) %MON vort_r_max                   =   6.7328483863435E-07
(PID.TID 0000.0001) %MON vort_a_mean                  =  -2.5205769219529E-05
(PID.TID 0000.0001) %MON vort_a_sd                    =   7.3401379382282E-05
(PID.TID 0000.0001) %MON vort_p_mean                  =  -3.1758669338346E-05
(PID.TID 0000.0001) %MON vort_p_sd                    =   1.3125927788458E-04
(PID.TID 0000.0001) %MON surfExpan_theta_mean         =   4.4824309809994E-05
(PID.TID 0000.0001) %MON surfExpan_salt_mean          =   7.6963922391981E-07
(PID.TID 0000.0001) // =======================================================
(PID.TID 0000.0001) // End MONITOR dynamic field statistics
(PID.TID 0000.0001) // =======================================================
(PID.TID 0000.0001) // Time-average data written, t-step        20
(PID.TID 0000.0001) 
time,SST,SSS,fu,fv,Q,E-P,i0,i1,a,b =   8.6400E+05  6.5667E-01  3.4598E+01 -3.7255E-02 -5.9422E-02  2.6555E+02  0.0000E+00    12     1  8.3333E-01  1.6667E-01
time,fu0,fu1,fu =   8.6400E+05 -4.5368E-02 -3.5633E-02 -3.7255E-02  8.3333E-01  1.6667E-01
 cg2d: Sum(rhs),rhsMax =   4.38832997717853E-14  1.09313661371492E+01
(PID.TID 0000.0001)                    cg2d_init_res =    7.11714648613837E-01
(PID.TID 0000.0001)                       cg2d_iters =    25
(PID.TID 0000.0001)                         cg2d_res =    3.01288833865242E-14
(PID.TID 0000.0001) // =======================================================
(PID.TID 0000.0001) // Begin MONITOR dynamic field statistics
(PID.TID 0000.0001) // =======================================================
(PID.TID 0000.0001) %MON time_tsnumber                =                    21
(PID.TID 0000.0001) %MON time_secondsf                =   9.0720000000000E+05
(PID.TID 0000.0001) %MON dynstat_eta_max              =   1.3007185096294E+00
(PID.TID 0000.0001) %MON dynstat_eta_min              =  -1.2131735889494E+00
(PID.TID 0000.0001) %MON dynstat_eta_mean             =  -3.5267507947030E-17
(PID.TID 0000.0001) %MON dynstat_eta_sd               =   3.9112962606395E-01
(PID.TID 0000.0001) %MON dynstat_eta_del2             =   1.9078475057461E-02
(PID.TID 0000.0001) %MON dynstat_uvel_max             =   2.0043960018304E-01
(PID.TID 0000.0001) %MON dynstat_uvel_min             =  -1.6097227218510E-01
(PID.TID 0000.0001) %MON dynstat_uvel_mean            =  -9.3011972338433E-03
(PID.TID 0000.0001) %MON dynstat_uvel_sd              =   2.0272777438528E-02
(PID.TID 0000.0001) %MON dynstat_uvel_del2            =   5.0362132584503E-03
(PID.TID 0000.0001) %MON dynstat_vvel_max             =   1.5123383417139E-01
(PID.TID 0000.0001) %MON dynstat_vvel_min             =  -1.4339181153237E-01
(PID.TID 0000.0001) %MON dynstat_vvel_mean            =   2.4483208797786E-03
(PID.TID 0000.0001) %MON dynstat_vvel_sd              =   1.5774381873595E-02
(PID.TID 0000.0001) %MON dynstat_vvel_del2            =   5.1546201598622E-03
(PID.TID 0000.0001) %MON dynstat_wvel_max             =   3.7793541857154E-04
(PID.TID 0000.0001) %MON dynstat_wvel_min             =  -4.9896312343435E-04
(PID.TID 0000.0001) %MON dynstat_wvel_mean            =   5.1308974197111E-22
(PID.TID 0000.0001) %MON dynstat_wvel_sd              =   3.8574237200608E-05
(PID.TID 0000.0001) %MON dynstat_wvel_del2            =   1.5451793524062E-05
(PID.TID 0000.0001) %MON dynstat_theta_max            =   2.9455893679424E+01
(PID.TID 0000.0001) %MON dynstat_theta_min            =  -1.9286646652717E+00
(PID.TID 0000.0001) %MON dynstat_theta_mean           =   3.5935247190450E+00
(PID.TID 0000.0001) %MON dynstat_theta_sd             =   4.3460784800862E+00
(PID.TID 0000.0001) %MON dynstat_theta_del2           =   1.3521094511784E-01
(PID.TID 0000.0001) %MON dynstat_salt_max             =   3.7422184122342E+01
(PID.TID 0000.0001) %MON dynstat_salt_min             =   2.9800023117276E+01
(PID.TID 0000.0001) %MON dynstat_salt_mean            =   3.4716144528648E+01
(PID.TID 0000.0001) %MON dynstat_salt_sd              =   2.9518124436975E-01
(PID.TID 0000.0001) %MON dynstat_salt_del2            =   2.5255350607620E-02
(PID.TID 0000.0001) %MON advcfl_uvel_max              =   3.0395924502627E-02
(PID.TID 0000.0001) %MON advcfl_vvel_max              =   1.4691154240204E-02
(PID.TID 0000.0001) %MON advcfl_wvel_max              =   1.7166046488234E-01
(PID.TID 0000.0001) %MON advcfl_W_hf_max              =   1.6291633775221E-01
(PID.TID 0000.0001) %MON pe_b_mean                    =   1.9575940022036E-04
(PID.TID 0000.0001) %MON ke_max                       =   1.9980507970040E-02
(PID.TID 0000.0001) %MON ke_mean                      =   3.4042306047158E-04
(PID.TID 0000.0001) %MON ke_vol                       =   1.3226782436723E+18
(PID.TID 0000.0001) %MON vort_r_min                   =  -6.8055437821061E-07
(PID.TID 0000.0001) %MON vort_r_max                   =   6.0920329030776E-07
(PID.TID 0000.0001) %MON vort_a_mean                  =  -2.5205769158280E-05
(PID.TID 0000.0001) %MON vort_a_sd                    =   7.3401439680318E-05
(PID.TID 0000.0001) %MON vort_p_mean                  =  -3.1758669261174E-05
(PID.TID 0000.0001) %MON vort_p_sd                    =   1.3125944734042E-04
(PID.TID 0000.0001) %MON surfExpan_theta_mean         =   3.4216927159625E-05
(PID.TID 0000.0001) %MON surfExpan_salt_mean          =  -1.0379677125782E-07
(PID.TID 0000.0001) // =======================================================
(PID.TID 0000.0001) // End MONITOR dynamic field statistics
(PID.TID 0000.0001) // =======================================================
time,SST,SSS,fu,fv,Q,E-P,i0,i1,a,b =   9.0720E+05  6.8684E-01  3.4609E+01 -3.7093E-02 -5.9205E-02  2.6557E+02  0.0000E+00    12     1  8.5000E-01  1.5000E-01
time,fu0,fu1,fu =   9.0720E+05 -4.5368E-02 -3.5633E-02 -3.7093E-02  8.5000E-01  1.5000E-01
 cg2d: Sum(rhs),rhsMax =   2.58659413332474E-13  1.18621214870371E+01
(PID.TID 0000.0001)                    cg2d_init_res =    6.43345636412962E-01
(PID.TID 0000.0001)                       cg2d_iters =    25
(PID.TID 0000.0001)                         cg2d_res =    3.11563547955270E-14
(PID.TID 0000.0001) // =======================================================
(PID.TID 0000.0001) // Begin MONITOR dynamic field statistics
(PID.TID 0000.0001) // =======================================================
(PID.TID 0000.0001) %MON time_tsnumber                =                    22
(PID.TID 0000.0001) %MON time_secondsf                =   9.5040000000000E+05
(PID.TID 0000.0001) %MON dynstat_eta_max              =   1.4078293745500E+00
(PID.TID 0000.0001) %MON dynstat_eta_min              =  -1.1673190017240E+00
(PID.TID 0000.0001) %MON dynstat_eta_mean             =  -5.6990763172314E-17
(PID.TID 0000.0001) %MON dynstat_eta_sd               =   3.9143741017082E-01
(PID.TID 0000.0001) %MON dynstat_eta_del2             =   1.8988767193043E-02
(PID.TID 0000.0001) %MON dynstat_uvel_max             =   2.0377215648837E-01
(PID.TID 0000.0001) %MON dynstat_uvel_min             =  -1.7728210359537E-01
(PID.TID 0000.0001) %MON dynstat_uvel_mean            =  -8.8873334702372E-03
(PID.TID 0000.0001) %MON dynstat_uvel_sd              =   2.0608893092293E-02
(PID.TID 0000.0001) %MON dynstat_uvel_del2            =   5.1117710352200E-03
(PID.TID 0000.0001) %MON dynstat_vvel_max             =   1.4205322943888E-01
(PID.TID 0000.0001) %MON dynstat_vvel_min             =  -1.4861279367558E-01
(PID.TID 0000.0001) %MON dynstat_vvel_mean            =   2.3492857882519E-03
(PID.TID 0000.0001) %MON dynstat_vvel_sd              =   1.5845232838109E-02
(PID.TID 0000.0001) %MON dynstat_vvel_del2            =   5.2089699759138E-03
(PID.TID 0000.0001) %MON dynstat_wvel_max             =   3.7317468569714E-04
(PID.TID 0000.0001) %MON dynstat_wvel_min             =  -4.9079444828366E-04
(PID.TID 0000.0001) %MON dynstat_wvel_mean            =  -3.8391207780143E-22
(PID.TID 0000.0001) %MON dynstat_wvel_sd              =   3.7785392170279E-05
(PID.TID 0000.0001) %MON dynstat_wvel_del2            =   1.5156511166426E-05
(PID.TID 0000.0001) %MON dynstat_theta_max            =   2.9458020708775E+01
(PID.TID 0000.0001) %MON dynstat_theta_min            =  -1.9289742433015E+00
(PID.TID 0000.0001) %MON dynstat_theta_mean           =   3.5933513080732E+00
(PID.TID 0000.0001) %MON dynstat_theta_sd             =   4.3446935900065E+00
(PID.TID 0000.0001) %MON dynstat_theta_del2           =   1.3504353276591E-01
(PID.TID 0000.0001) %MON dynstat_salt_max             =   3.7421141649594E+01
(PID.TID 0000.0001) %MON dynstat_salt_min             =   2.9800047031404E+01
(PID.TID 0000.0001) %MON dynstat_salt_mean            =   3.4716159223156E+01
(PID.TID 0000.0001) %MON dynstat_salt_sd              =   2.9513361133203E-01
(PID.TID 0000.0001) %MON dynstat_salt_del2            =   2.5243136607606E-02
(PID.TID 0000.0001) %MON advcfl_uvel_max              =   3.0352356230899E-02
(PID.TID 0000.0001) %MON advcfl_vvel_max              =   1.4436541174254E-02
(PID.TID 0000.0001) %MON advcfl_wvel_max              =   1.5423964548557E-01
(PID.TID 0000.0001) %MON advcfl_W_hf_max              =   1.4371096603437E-01
(PID.TID 0000.0001) %MON pe_b_mean                    =   1.9606761179254E-04
(PID.TID 0000.0001) %MON ke_max                       =   2.0740359795880E-02
(PID.TID 0000.0001) %MON ke_mean                      =   3.4403835280682E-04
(PID.TID 0000.0001) %MON ke_vol                       =   1.3226782436723E+18
(PID.TID 0000.0001) %MON vort_r_min                   =  -6.9516817015281E-07
(PID.TID 0000.0001) %MON vort_r_max                   =   6.2511341284631E-07
(PID.TID 0000.0001) %MON vort_a_mean                  =  -2.5205769106625E-05
(PID.TID 0000.0001) %MON vort_a_sd                    =   7.3401512819527E-05
(PID.TID 0000.0001) %MON vort_p_mean                  =  -3.1758669196090E-05
(PID.TID 0000.0001) %MON vort_p_sd                    =   1.3125965271640E-04
(PID.TID 0000.0001) %MON surfExpan_theta_mean         =   2.4721241929295E-05
(PID.TID 0000.0001) %MON surfExpan_salt_mean          =  -8.6046325819699E-07
(PID.TID 0000.0001) // =======================================================
(PID.TID 0000.0001) // End MONITOR dynamic field statistics
(PID.TID 0000.0001) // =======================================================
time,SST,SSS,fu,fv,Q,E-P,i0,i1,a,b =   9.5040E+05  7.1702E-01  3.4621E+01 -3.6931E-02 -5.8989E-02  2.6559E+02  0.0000E+00    12     1  8.6667E-01  1.3333E-01
time,fu0,fu1,fu =   9.5040E+05 -4.5368E-02 -3.5633E-02 -3.6931E-02  8.6667E-01  1.3333E-01
 cg2d: Sum(rhs),rhsMax =  -1.29587313102419E-13  1.26581340407874E+01
(PID.TID 0000.0001)                    cg2d_init_res =    5.90613181043138E-01
(PID.TID 0000.0001)                       cg2d_iters =    25
(PID.TID 0000.0001)                         cg2d_res =    3.12549682797109E-14
(PID.TID 0000.0001) // =======================================================
(PID.TID 0000.0001) // Begin MONITOR dynamic field statistics
(PID.TID 0000.0001) // =======================================================
(PID.TID 0000.0001) %MON time_tsnumber                =                    23
(PID.TID 0000.0001) %MON time_secondsf                =   9.9360000000000E+05
(PID.TID 0000.0001) %MON dynstat_eta_max              =   1.4990152776624E+00
(PID.TID 0000.0001) %MON dynstat_eta_min              =  -1.1212182153581E+00
(PID.TID 0000.0001) %MON dynstat_eta_mean             =   1.2007595278021E-16
(PID.TID 0000.0001) %MON dynstat_eta_sd               =   3.9094962564936E-01
(PID.TID 0000.0001) %MON dynstat_eta_del2             =   1.8869910060845E-02
(PID.TID 0000.0001) %MON dynstat_uvel_max             =   2.0637728187485E-01
(PID.TID 0000.0001) %MON dynstat_uvel_min             =  -1.9118188969745E-01
(PID.TID 0000.0001) %MON dynstat_uvel_mean            =  -8.4291259343145E-03
(PID.TID 0000.0001) %MON dynstat_uvel_sd              =   2.0873480679271E-02
(PID.TID 0000.0001) %MON dynstat_uvel_del2            =   5.1778079790434E-03
(PID.TID 0000.0001) %MON dynstat_vvel_max             =   1.4153738572196E-01
(PID.TID 0000.0001) %MON dynstat_vvel_min             =  -1.5038273323591E-01
(PID.TID 0000.0001) %MON dynstat_vvel_mean            =   2.3069934654555E-03
(PID.TID 0000.0001) %MON dynstat_vvel_sd              =   1.5919505757107E-02
(PID.TID 0000.0001) %MON dynstat_vvel_del2            =   5.2514908172879E-03
(PID.TID 0000.0001) %MON dynstat_wvel_max             =   3.8153212220034E-04
(PID.TID 0000.0001) %MON dynstat_wvel_min             =  -4.7891208259093E-04
(PID.TID 0000.0001) %MON dynstat_wvel_mean            =  -1.6669168472511E-22
(PID.TID 0000.0001) %MON dynstat_wvel_sd              =   3.6974333254650E-05
(PID.TID 0000.0001) %MON dynstat_wvel_del2            =   1.4843029651771E-05
(PID.TID 0000.0001) %MON dynstat_theta_max            =   2.9460230035954E+01
(PID.TID 0000.0001) %MON dynstat_theta_min            =  -1.9295861437293E+00
(PID.TID 0000.0001) %MON dynstat_theta_mean           =   3.5932632477434E+00
(PID.TID 0000.0001) %MON dynstat_theta_sd             =   4.3436396528247E+00
(PID.TID 0000.0001) %MON dynstat_theta_del2           =   1.3491625355555E-01
(PID.TID 0000.0001) %MON dynstat_salt_max             =   3.7420124825868E+01
(PID.TID 0000.0001) %MON dynstat_salt_min             =   2.9800078859256E+01
(PID.TID 0000.0001) %MON dynstat_salt_mean            =   3.4716180095321E+01
(PID.TID 0000.0001) %MON dynstat_salt_sd              =   2.9508745912088E-01
(PID.TID 0000.0001) %MON dynstat_salt_del2            =   2.5231982411456E-02
(PID.TID 0000.0001) %MON advcfl_uvel_max              =   3.0999693141187E-02
(PID.TID 0000.0001) %MON advcfl_vvel_max              =   1.4608476609331E-02
(PID.TID 0000.0001) %MON advcfl_wvel_max              =   1.6401152905310E-01
(PID.TID 0000.0001) %MON advcfl_W_hf_max              =   1.5007860028413E-01
(PID.TID 0000.0001) %MON pe_b_mean                    =   1.9557926216508E-04
(PID.TID 0000.0001) %MON ke_max                       =   2.1399888087943E-02
(PID.TID 0000.0001) %MON ke_mean                      =   3.4639077795792E-04
(PID.TID 0000.0001) %MON ke_vol                       =   1.3226782436723E+18
(PID.TID 0000.0001) %MON vort_r_min                   =  -7.0752766181439E-07
(PID.TID 0000.0001) %MON vort_r_max                   =   6.4154204069529E-07
(PID.TID 0000.0001) %MON vort_a_mean                  =  -2.5205769067269E-05
(PID.TID 0000.0001) %MON vort_a_sd                    =   7.3401596100284E-05
(PID.TID 0000.0001) %MON vort_p_mean                  =  -3.1758669146502E-05
(PID.TID 0000.0001) %MON vort_p_sd                    =   1.3125988124040E-04
(PID.TID 0000.0001) %MON surfExpan_theta_mean         =   1.6457098967127E-05
(PID.TID 0000.0001) %MON surfExpan_salt_mean          =  -1.4890557175794E-06
(PID.TID 0000.0001) // =======================================================
(PID.TID 0000.0001) // End MONITOR dynamic field statistics
(PID.TID 0000.0001) // =======================================================
time,SST,SSS,fu,fv,Q,E-P,i0,i1,a,b =   9.9360E+05  7.4719E-01  3.4633E+01 -3.6769E-02 -5.8772E-02  2.6561E+02  0.0000E+00    12     1  8.8333E-01  1.1667E-01
time,fu0,fu1,fu =   9.9360E+05 -4.5368E-02 -3.5633E-02 -3.6769E-02  8.8333E-01  1.1667E-01
 cg2d: Sum(rhs),rhsMax =  -9.83726988756928E-14  1.32897167539259E+01
(PID.TID 0000.0001)                    cg2d_init_res =    5.51067954395814E-01
(PID.TID 0000.0001)                       cg2d_iters =    25
(PID.TID 0000.0001)                         cg2d_res =    3.06771674434382E-14
(PID.TID 0000.0001) // =======================================================
(PID.TID 0000.0001) // Begin MONITOR dynamic field statistics
(PID.TID 0000.0001) // =======================================================
(PID.TID 0000.0001) %MON time_tsnumber                =                    24
(PID.TID 0000.0001) %MON time_secondsf                =   1.0368000000000E+06
(PID.TID 0000.0001) %MON dynstat_eta_max              =   1.5708985675430E+00
(PID.TID 0000.0001) %MON dynstat_eta_min              =  -1.1420600707622E+00
(PID.TID 0000.0001) %MON dynstat_eta_mean             =   6.0306855181080E-17
(PID.TID 0000.0001) %MON dynstat_eta_sd               =   3.8986953769990E-01
(PID.TID 0000.0001) %MON dynstat_eta_del2             =   1.8730858682241E-02
(PID.TID 0000.0001) %MON dynstat_uvel_max             =   2.0822867362538E-01
(PID.TID 0000.0001) %MON dynstat_uvel_min             =  -2.0212690731165E-01
(PID.TID 0000.0001) %MON dynstat_uvel_mean            =  -7.9415541173978E-03
(PID.TID 0000.0001) %MON dynstat_uvel_sd              =   2.1067944101261E-02
(PID.TID 0000.0001) %MON dynstat_uvel_del2            =   5.2395421955427E-03
(PID.TID 0000.0001) %MON dynstat_vvel_max             =   1.4447396810736E-01
(PID.TID 0000.0001) %MON dynstat_vvel_min             =  -1.5048455672191E-01
(PID.TID 0000.0001) %MON dynstat_vvel_mean            =   2.3182389561178E-03
(PID.TID 0000.0001) %MON dynstat_vvel_sd              =   1.5995239558165E-02
(PID.TID 0000.0001) %MON dynstat_vvel_del2            =   5.2845742602794E-03
(PID.TID 0000.0001) %MON dynstat_wvel_max             =   3.9328218271139E-04
(PID.TID 0000.0001) %MON dynstat_wvel_min             =  -4.6349295287166E-04
(PID.TID 0000.0001) %MON dynstat_wvel_mean            =   8.5332882663502E-22
(PID.TID 0000.0001) %MON dynstat_wvel_sd              =   3.6165376138359E-05
(PID.TID 0000.0001) %MON dynstat_wvel_del2            =   1.4520925994544E-05
(PID.TID 0000.0001) %MON dynstat_theta_max            =   2.9462359185951E+01
(PID.TID 0000.0001) %MON dynstat_theta_min            =  -1.9307204069063E+00
(PID.TID 0000.0001) %MON dynstat_theta_mean           =   3.5932453547613E+00
(PID.TID 0000.0001) %MON dynstat_theta_sd             =   4.3428970602611E+00
(PID.TID 0000.0001) %MON dynstat_theta_del2           =   1.3481098350746E-01
(PID.TID 0000.0001) %MON dynstat_salt_max             =   3.7419116058254E+01
(PID.TID 0000.0001) %MON dynstat_salt_min             =   2.9800132740454E+01
(PID.TID 0000.0001) %MON dynstat_salt_mean            =   3.4716205534733E+01
(PID.TID 0000.0001) %MON dynstat_salt_sd              =   2.9504176550462E-01
(PID.TID 0000.0001) %MON dynstat_salt_del2            =   2.5222385155510E-02
(PID.TID 0000.0001) %MON advcfl_uvel_max              =   3.1482617495557E-02
(PID.TID 0000.0001) %MON advcfl_vvel_max              =   1.4618367944470E-02
(PID.TID 0000.0001) %MON advcfl_wvel_max              =   1.7731656833183E-01
(PID.TID 0000.0001) %MON advcfl_W_hf_max              =   1.5433995042751E-01
(PID.TID 0000.0001) %MON pe_b_mean                    =   1.9450008987762E-04
(PID.TID 0000.0001) %MON ke_max                       =   2.1959509443020E-02
(PID.TID 0000.0001) %MON ke_mean                      =   3.4757837485720E-04
(PID.TID 0000.0001) %MON ke_vol                       =   1.3226782436723E+18
(PID.TID 0000.0001) %MON vort_r_min                   =  -7.2335580840050E-07
(PID.TID 0000.0001) %MON vort_r_max                   =   6.5322093186332E-07
(PID.TID 0000.0001) %MON vort_a_mean                  =  -2.5205769041693E-05
(PID.TID 0000.0001) %MON vort_a_sd                    =   7.3401686882747E-05
(PID.TID 0000.0001) %MON vort_p_mean                  =  -3.1758669114278E-05
(PID.TID 0000.0001) %MON vort_p_sd                    =   1.3126012209939E-04
(PID.TID 0000.0001) %MON surfExpan_theta_mean         =   9.4954667794714E-06
(PID.TID 0000.0001) %MON surfExpan_salt_mean          =  -1.9813449689988E-06
(PID.TID 0000.0001) // =======================================================
(PID.TID 0000.0001) // End MONITOR dynamic field statistics
(PID.TID 0000.0001) // =======================================================
time,SST,SSS,fu,fv,Q,E-P,i0,i1,a,b =   1.0368E+06  7.7737E-01  3.4644E+01 -3.6606E-02 -5.8556E-02  2.6564E+02  0.0000E+00    12     1  9.0000E-01  1.0000E-01
time,fu0,fu1,fu =   1.0368E+06 -4.5368E-02 -3.5633E-02 -3.6606E-02  9.0000E-01  1.0000E-01
 cg2d: Sum(rhs),rhsMax =  -4.33333924299006E-15  1.37323322818602E+01
(PID.TID 0000.0001)                    cg2d_init_res =    5.23673458799531E-01
(PID.TID 0000.0001)                       cg2d_iters =    25
(PID.TID 0000.0001)                         cg2d_res =    2.95860278283742E-14
(PID.TID 0000.0001) // =======================================================
(PID.TID 0000.0001) // Begin MONITOR dynamic field statistics
(PID.TID 0000.0001) // =======================================================
(PID.TID 0000.0001) %MON time_tsnumber                =                    25
(PID.TID 0000.0001) %MON time_secondsf                =   1.0800000000000E+06
(PID.TID 0000.0001) %MON dynstat_eta_max              =   1.6206954058692E+00
(PID.TID 0000.0001) %MON dynstat_eta_min              =  -1.1413636865800E+00
(PID.TID 0000.0001) %MON dynstat_eta_mean             =   1.4480658304190E-16
(PID.TID 0000.0001) %MON dynstat_eta_sd               =   3.8838352430343E-01
(PID.TID 0000.0001) %MON dynstat_eta_del2             =   1.8609378459954E-02
(PID.TID 0000.0001) %MON dynstat_uvel_max             =   2.0883203529732E-01
(PID.TID 0000.0001) %MON dynstat_uvel_min             =  -2.0967224332388E-01
(PID.TID 0000.0001) %MON dynstat_uvel_mean            =  -7.4385667279253E-03
(PID.TID 0000.0001) %MON dynstat_uvel_sd              =   2.1193451528852E-02
(PID.TID 0000.0001) %MON dynstat_uvel_del2            =   5.2964265260854E-03
(PID.TID 0000.0001) %MON dynstat_vvel_max             =   1.4775321100957E-01
(PID.TID 0000.0001) %MON dynstat_vvel_min             =  -1.4919193507854E-01
(PID.TID 0000.0001) %MON dynstat_vvel_mean            =   2.3775905441309E-03
(PID.TID 0000.0001) %MON dynstat_vvel_sd              =   1.6072456156609E-02
(PID.TID 0000.0001) %MON dynstat_vvel_del2            =   5.3061394054827E-03
(PID.TID 0000.0001) %MON dynstat_wvel_max             =   4.0210226082905E-04
(PID.TID 0000.0001) %MON dynstat_wvel_min             =  -4.4488448756471E-04
(PID.TID 0000.0001) %MON dynstat_wvel_mean            =  -1.2861449495490E-21
(PID.TID 0000.0001) %MON dynstat_wvel_sd              =   3.5384656961415E-05
(PID.TID 0000.0001) %MON dynstat_wvel_del2            =   1.4199683692324E-05
(PID.TID 0000.0001) %MON dynstat_theta_max            =   2.9464237239481E+01
(PID.TID 0000.0001) %MON dynstat_theta_min            =  -1.9322978480500E+00
(PID.TID 0000.0001) %MON dynstat_theta_mean           =   3.5932824452332E+00
(PID.TID 0000.0001) %MON dynstat_theta_sd             =   4.3424412288803E+00
(PID.TID 0000.0001) %MON dynstat_theta_del2           =   1.3471604998180E-01
(PID.TID 0000.0001) %MON dynstat_salt_max             =   3.7418113630226E+01
(PID.TID 0000.0001) %MON dynstat_salt_min             =   2.9800230596692E+01
(PID.TID 0000.0001) %MON dynstat_salt_mean            =   3.4716233899180E+01
(PID.TID 0000.0001) %MON dynstat_salt_sd              =   2.9499567911686E-01
(PID.TID 0000.0001) %MON dynstat_salt_del2            =   2.5209762575097E-02
(PID.TID 0000.0001) %MON advcfl_uvel_max              =   3.1802366989447E-02
(PID.TID 0000.0001) %MON advcfl_vvel_max              =   1.4492800117397E-02
(PID.TID 0000.0001) %MON advcfl_wvel_max              =   1.8416252689535E-01
(PID.TID 0000.0001) %MON advcfl_W_hf_max              =   1.4682937788565E-01
(PID.TID 0000.0001) %MON pe_b_mean                    =   1.9302021580004E-04
(PID.TID 0000.0001) %MON ke_max                       =   2.2417568866075E-02
(PID.TID 0000.0001) %MON ke_mean                      =   3.4771031036421E-04
(PID.TID 0000.0001) %MON ke_vol                       =   1.3226782436723E+18
(PID.TID 0000.0001) %MON vort_r_min                   =  -7.3511385354753E-07
(PID.TID 0000.0001) %MON vort_r_max                   =   6.5969945750390E-07
(PID.TID 0000.0001) %MON vort_a_mean                  =  -2.5205769029989E-05
(PID.TID 0000.0001) %MON vort_a_sd                    =   7.3401782654424E-05
(PID.TID 0000.0001) %MON vort_p_mean                  =  -3.1758669099530E-05
(PID.TID 0000.0001) %MON vort_p_sd                    =   1.3126036666172E-04
(PID.TID 0000.0001) %MON surfExpan_theta_mean         =   3.8663411657295E-06
(PID.TID 0000.0001) %MON surfExpan_salt_mean          =  -2.3304503585159E-06
(PID.TID 0000.0001) // =======================================================
(PID.TID 0000.0001) // End MONITOR dynamic field statistics
(PID.TID 0000.0001) // =======================================================
time,SST,SSS,fu,fv,Q,E-P,i0,i1,a,b =   1.0800E+06  8.0755E-01  3.4656E+01 -3.6444E-02 -5.8339E-02  2.6566E+02  0.0000E+00    12     1  9.1667E-01  8.3333E-02
time,fu0,fu1,fu =   1.0800E+06 -4.5368E-02 -3.5633E-02 -3.6444E-02  9.1667E-01  8.3333E-02
 cg2d: Sum(rhs),rhsMax =  -1.08281439370472E-14  1.39675819284171E+01
(PID.TID 0000.0001)                    cg2d_init_res =    5.08227457210710E-01
(PID.TID 0000.0001)                       cg2d_iters =    25
(PID.TID 0000.0001)                         cg2d_res =    2.81794981582881E-14
(PID.TID 0000.0001) // =======================================================
(PID.TID 0000.0001) // Begin MONITOR dynamic field statistics
(PID.TID 0000.0001) // =======================================================
(PID.TID 0000.0001) %MON time_tsnumber                =                    26
(PID.TID 0000.0001) %MON time_secondsf                =   1.1232000000000E+06
(PID.TID 0000.0001) %MON dynstat_eta_max              =   1.6463284432004E+00
(PID.TID 0000.0001) %MON dynstat_eta_min              =  -1.1206677447680E+00
(PID.TID 0000.0001) %MON dynstat_eta_mean             =   1.0991767600705E-17
(PID.TID 0000.0001) %MON dynstat_eta_sd               =   3.8666660479413E-01
(PID.TID 0000.0001) %MON dynstat_eta_del2             =   1.8470177237523E-02
(PID.TID 0000.0001) %MON dynstat_uvel_max             =   2.0815515548290E-01
(PID.TID 0000.0001) %MON dynstat_uvel_min             =  -2.1349129929429E-01
(PID.TID 0000.0001) %MON dynstat_uvel_mean            =  -6.9328153624112E-03
(PID.TID 0000.0001) %MON dynstat_uvel_sd              =   2.1251344660103E-02
(PID.TID 0000.0001) %MON dynstat_uvel_del2            =   5.3509098218667E-03
(PID.TID 0000.0001) %MON dynstat_vvel_max             =   1.5049912710369E-01
(PID.TID 0000.0001) %MON dynstat_vvel_min             =  -1.4552409790499E-01
(PID.TID 0000.0001) %MON dynstat_vvel_mean            =   2.4778899243094E-03
(PID.TID 0000.0001) %MON dynstat_vvel_sd              =   1.6151929552072E-02
(PID.TID 0000.0001) %MON dynstat_vvel_del2            =   5.3184973358759E-03
(PID.TID 0000.0001) %MON dynstat_wvel_max             =   4.0802413300803E-04
(PID.TID 0000.0001) %MON dynstat_wvel_min             =  -4.2357650040444E-04
(PID.TID 0000.0001) %MON dynstat_wvel_mean            =  -8.2498173546434E-22
(PID.TID 0000.0001) %MON dynstat_wvel_sd              =   3.4658048330447E-05
(PID.TID 0000.0001) %MON dynstat_wvel_del2            =   1.3887631476220E-05
(PID.TID 0000.0001) %MON dynstat_theta_max            =   2.9465724823899E+01
(PID.TID 0000.0001) %MON dynstat_theta_min            =  -1.9341599479398E+00
(PID.TID 0000.0001) %MON dynstat_theta_mean           =   3.5933597734438E+00
(PID.TID 0000.0001) %MON dynstat_theta_sd             =   4.3422427064322E+00
(PID.TID 0000.0001) %MON dynstat_theta_del2           =   1.3463317379304E-01
(PID.TID 0000.0001) %MON dynstat_salt_max             =   3.7417117798704E+01
(PID.TID 0000.0001) %MON dynstat_salt_min             =   2.9800388647919E+01
(PID.TID 0000.0001) %MON dynstat_salt_mean            =   3.4716263528115E+01
(PID.TID 0000.0001) %MON dynstat_salt_sd              =   2.9494817728963E-01
(PID.TID 0000.0001) %MON dynstat_salt_del2            =   2.5195484580808E-02
(PID.TID 0000.0001) %MON advcfl_uvel_max              =   3.1978595851980E-02
(PID.TID 0000.0001) %MON advcfl_vvel_max              =   1.4619783340219E-02
(PID.TID 0000.0001) %MON advcfl_wvel_max              =   1.8404549358280E-01
(PID.TID 0000.0001) %MON advcfl_W_hf_max              =   1.3949091178425E-01
(PID.TID 0000.0001) %MON pe_b_mean                    =   1.9131742643672E-04
(PID.TID 0000.0001) %MON ke_max                       =   2.2769619050057E-02
(PID.TID 0000.0001) %MON ke_mean                      =   3.4689293533602E-04
(PID.TID 0000.0001) %MON ke_vol                       =   1.3226782436723E+18
(PID.TID 0000.0001) %MON vort_r_min                   =  -7.4277715257904E-07
(PID.TID 0000.0001) %MON vort_r_max                   =   6.6110126046834E-07
(PID.TID 0000.0001) %MON vort_a_mean                  =  -2.5205769031339E-05
(PID.TID 0000.0001) %MON vort_a_sd                    =   7.3401881074856E-05
(PID.TID 0000.0001) %MON vort_p_mean                  =  -3.1758669101232E-05
(PID.TID 0000.0001) %MON vort_p_sd                    =   1.3126060843181E-04
(PID.TID 0000.0001) %MON surfExpan_theta_mean         =  -4.5308288603586E-07
(PID.TID 0000.0001) %MON surfExpan_salt_mean          =  -2.5343640995814E-06
(PID.TID 0000.0001) // =======================================================
(PID.TID 0000.0001) // End MONITOR dynamic field statistics
(PID.TID 0000.0001) // =======================================================
time,SST,SSS,fu,fv,Q,E-P,i0,i1,a,b =   1.1232E+06  8.3772E-01  3.4668E+01 -3.6282E-02 -5.8123E-02  2.6568E+02  0.0000E+00    12     1  9.3333E-01  6.6667E-02
time,fu0,fu1,fu =   1.1232E+06 -4.5368E-02 -3.5633E-02 -3.6282E-02  9.3333E-01  6.6667E-02
 cg2d: Sum(rhs),rhsMax =  -1.96336003011055E-14  1.39838979558807E+01
(PID.TID 0000.0001)                    cg2d_init_res =    5.04783536373348E-01
(PID.TID 0000.0001)                       cg2d_iters =    25
(PID.TID 0000.0001)                         cg2d_res =    2.64033646866834E-14
(PID.TID 0000.0001) // =======================================================
(PID.TID 0000.0001) // Begin MONITOR dynamic field statistics
(PID.TID 0000.0001) // =======================================================
(PID.TID 0000.0001) %MON time_tsnumber                =                    27
(PID.TID 0000.0001) %MON time_secondsf                =   1.1664000000000E+06
(PID.TID 0000.0001) %MON dynstat_eta_max              =   1.6465067281849E+00
(PID.TID 0000.0001) %MON dynstat_eta_min              =  -1.0883651020414E+00
(PID.TID 0000.0001) %MON dynstat_eta_mean             =   1.1036734151191E-16
(PID.TID 0000.0001) %MON dynstat_eta_sd               =   3.8488865739836E-01
(PID.TID 0000.0001) %MON dynstat_eta_del2             =   1.8405059190230E-02
(PID.TID 0000.0001) %MON dynstat_uvel_max             =   2.0617640666227E-01
(PID.TID 0000.0001) %MON dynstat_uvel_min             =  -2.1339074537620E-01
(PID.TID 0000.0001) %MON dynstat_uvel_mean            =  -6.4354732216832E-03
(PID.TID 0000.0001) %MON dynstat_uvel_sd              =   2.1243524246922E-02
(PID.TID 0000.0001) %MON dynstat_uvel_del2            =   5.4055606487821E-03
(PID.TID 0000.0001) %MON dynstat_vvel_max             =   1.5274790929417E-01
(PID.TID 0000.0001) %MON dynstat_vvel_min             =  -1.5198853465169E-01
(PID.TID 0000.0001) %MON dynstat_vvel_mean            =   2.6107466061072E-03
(PID.TID 0000.0001) %MON dynstat_vvel_sd              =   1.6233873054736E-02
(PID.TID 0000.0001) %MON dynstat_vvel_del2            =   5.3256382005162E-03
(PID.TID 0000.0001) %MON dynstat_wvel_max             =   4.1112432865833E-04
(PID.TID 0000.0001) %MON dynstat_wvel_min             =  -4.0014499172695E-04
(PID.TID 0000.0001) %MON dynstat_wvel_mean            =   5.1689623520032E-22
(PID.TID 0000.0001) %MON dynstat_wvel_sd              =   3.4007572936297E-05
(PID.TID 0000.0001) %MON dynstat_wvel_del2            =   1.3591120349446E-05
(PID.TID 0000.0001) %MON dynstat_theta_max            =   2.9466748055727E+01
(PID.TID 0000.0001) %MON dynstat_theta_min            =  -1.9361456389999E+00
(PID.TID 0000.0001) %MON dynstat_theta_mean           =   3.5934636430633E+00
(PID.TID 0000.0001) %MON dynstat_theta_sd             =   4.3422685649529E+00
(PID.TID 0000.0001) %MON dynstat_theta_del2           =   1.3458390565128E-01
(PID.TID 0000.0001) %MON dynstat_salt_max             =   3.7416127650906E+01
(PID.TID 0000.0001) %MON dynstat_salt_min             =   2.9800617235652E+01
(PID.TID 0000.0001) %MON dynstat_salt_mean            =   3.4716292831815E+01
(PID.TID 0000.0001) %MON dynstat_salt_sd              =   2.9489921064622E-01
(PID.TID 0000.0001) %MON dynstat_salt_del2            =   2.5181936304697E-02
(PID.TID 0000.0001) %MON advcfl_uvel_max              =   3.2537600478842E-02
(PID.TID 0000.0001) %MON advcfl_vvel_max              =   1.4838234496959E-02
(PID.TID 0000.0001) %MON advcfl_wvel_max              =   1.7681961904081E-01
(PID.TID 0000.0001) %MON advcfl_W_hf_max              =   1.3360307346471E-01
(PID.TID 0000.0001) %MON pe_b_mean                    =   1.8956206260752E-04
(PID.TID 0000.0001) %MON ke_max                       =   2.3008258112170E-02
(PID.TID 0000.0001) %MON ke_mean                      =   3.4521631094421E-04
(PID.TID 0000.0001) %MON ke_vol                       =   1.3226782436723E+18
(PID.TID 0000.0001) %MON vort_r_min                   =  -7.4637697342816E-07
(PID.TID 0000.0001) %MON vort_r_max                   =   6.5774105868011E-07
(PID.TID 0000.0001) %MON vort_a_mean                  =  -2.5205769044021E-05
(PID.TID 0000.0001) %MON vort_a_sd                    =   7.3401980011653E-05
(PID.TID 0000.0001) %MON vort_p_mean                  =  -3.1758669117212E-05
(PID.TID 0000.0001) %MON vort_p_sd                    =   1.3126084284742E-04
(PID.TID 0000.0001) %MON surfExpan_theta_mean         =  -3.5235203851820E-06
(PID.TID 0000.0001) %MON surfExpan_salt_mean          =  -2.5948623438844E-06
(PID.TID 0000.0001) // =======================================================
(PID.TID 0000.0001) // End MONITOR dynamic field statistics
(PID.TID 0000.0001) // =======================================================
time,SST,SSS,fu,fv,Q,E-P,i0,i1,a,b =   1.1664E+06  8.6790E-01  3.4679E+01 -3.6120E-02 -5.7906E-02  2.6570E+02  0.0000E+00    12     1  9.5000E-01  5.0000E-02
time,fu0,fu1,fu =   1.1664E+06 -4.5368E-02 -3.5633E-02 -3.6120E-02  9.5000E-01  5.0000E-02
 cg2d: Sum(rhs),rhsMax =  -8.17575174227869E-14  1.37769726896886E+01
(PID.TID 0000.0001)                    cg2d_init_res =    5.13230004478345E-01
(PID.TID 0000.0001)                       cg2d_iters =    25
(PID.TID 0000.0001)                         cg2d_res =    2.48009284097972E-14
(PID.TID 0000.0001) // =======================================================
(PID.TID 0000.0001) // Begin MONITOR dynamic field statistics
(PID.TID 0000.0001) // =======================================================
(PID.TID 0000.0001) %MON time_tsnumber                =                    28
(PID.TID 0000.0001) %MON time_secondsf                =   1.2096000000000E+06
(PID.TID 0000.0001) %MON dynstat_eta_max              =   1.6207762372768E+00
(PID.TID 0000.0001) %MON dynstat_eta_min              =  -1.0716304427868E+00
(PID.TID 0000.0001) %MON dynstat_eta_mean             =   5.8481520943861E-17
(PID.TID 0000.0001) %MON dynstat_eta_sd               =   3.8321746608658E-01
(PID.TID 0000.0001) %MON dynstat_eta_del2             =   1.8434658621827E-02
(PID.TID 0000.0001) %MON dynstat_uvel_max             =   2.0288551228456E-01
(PID.TID 0000.0001) %MON dynstat_uvel_min             =  -2.0932104397264E-01
(PID.TID 0000.0001) %MON dynstat_uvel_mean            =  -5.9561180895075E-03
(PID.TID 0000.0001) %MON dynstat_uvel_sd              =   2.1172759870652E-02
(PID.TID 0000.0001) %MON dynstat_uvel_del2            =   5.4576896684197E-03
(PID.TID 0000.0001) %MON dynstat_vvel_max             =   1.5452798914050E-01
(PID.TID 0000.0001) %MON dynstat_vvel_min             =  -1.5624929105069E-01
(PID.TID 0000.0001) %MON dynstat_vvel_mean            =   2.7670126087802E-03
(PID.TID 0000.0001) %MON dynstat_vvel_sd              =   1.6316972588178E-02
(PID.TID 0000.0001) %MON dynstat_vvel_del2            =   5.3297261979437E-03
(PID.TID 0000.0001) %MON dynstat_wvel_max             =   4.1150469404327E-04
(PID.TID 0000.0001) %MON dynstat_wvel_min             =  -3.8130180760029E-04
(PID.TID 0000.0001) %MON dynstat_wvel_mean            =  -1.1277475719692E-22
(PID.TID 0000.0001) %MON dynstat_wvel_sd              =   3.3447600554454E-05
(PID.TID 0000.0001) %MON dynstat_wvel_del2            =   1.3318697332531E-05
(PID.TID 0000.0001) %MON dynstat_theta_max            =   2.9467326686683E+01
(PID.TID 0000.0001) %MON dynstat_theta_min            =  -1.9381039373746E+00
(PID.TID 0000.0001) %MON dynstat_theta_mean           =   3.5935817550474E+00
(PID.TID 0000.0001) %MON dynstat_theta_sd             =   4.3424824555001E+00
(PID.TID 0000.0001) %MON dynstat_theta_del2           =   1.3453406448911E-01
(PID.TID 0000.0001) %MON dynstat_salt_max             =   3.7415140317190E+01
(PID.TID 0000.0001) %MON dynstat_salt_min             =   2.9800920878196E+01
(PID.TID 0000.0001) %MON dynstat_salt_mean            =   3.4716320334228E+01
(PID.TID 0000.0001) %MON dynstat_salt_sd              =   2.9484822222879E-01
(PID.TID 0000.0001) %MON dynstat_salt_del2            =   2.5166222761263E-02
(PID.TID 0000.0001) %MON advcfl_uvel_max              =   3.2975306681213E-02
(PID.TID 0000.0001) %MON advcfl_vvel_max              =   1.5178365656899E-02
(PID.TID 0000.0001) %MON advcfl_wvel_max              =   1.6269551890734E-01
(PID.TID 0000.0001) %MON advcfl_W_hf_max              =   1.2241616667042E-01
(PID.TID 0000.0001) %MON pe_b_mean                    =   1.8791947479289E-04
(PID.TID 0000.0001) %MON ke_max                       =   2.3247891945123E-02
(PID.TID 0000.0001) %MON ke_mean                      =   3.4274568643834E-04
(PID.TID 0000.0001) %MON ke_vol                       =   1.3226782436723E+18
(PID.TID 0000.0001) %MON vort_r_min                   =  -7.4599696495664E-07
(PID.TID 0000.0001) %MON vort_r_max                   =   6.5008180709153E-07
(PID.TID 0000.0001) %MON vort_a_mean                  =  -2.5205769065622E-05
(PID.TID 0000.0001) %MON vort_a_sd                    =   7.3402077564080E-05
(PID.TID 0000.0001) %MON vort_p_mean                  =  -3.1758669144428E-05
(PID.TID 0000.0001) %MON vort_p_sd                    =   1.3126106695562E-04
(PID.TID 0000.0001) %MON surfExpan_theta_mean         =  -5.4497623680812E-06
(PID.TID 0000.0001) %MON surfExpan_salt_mean          =  -2.5197572093384E-06
(PID.TID 0000.0001) // =======================================================
(PID.TID 0000.0001) // End MONITOR dynamic field statistics
(PID.TID 0000.0001) // =======================================================
time,SST,SSS,fu,fv,Q,E-P,i0,i1,a,b =   1.2096E+06  8.9807E-01  3.4691E+01 -3.5957E-02 -5.7690E-02  2.6573E+02  0.0000E+00    12     1  9.6667E-01  3.3333E-02
time,fu0,fu1,fu =   1.2096E+06 -4.5368E-02 -3.5633E-02 -3.5957E-02  9.6667E-01  3.3333E-02
 cg2d: Sum(rhs),rhsMax =  -7.53112849860571E-14  1.33499348747001E+01
(PID.TID 0000.0001)                    cg2d_init_res =    5.33178278206078E-01
(PID.TID 0000.0001)                       cg2d_iters =    25
(PID.TID 0000.0001)                         cg2d_res =    2.27729947224151E-14
(PID.TID 0000.0001) // =======================================================
(PID.TID 0000.0001) // Begin MONITOR dynamic field statistics
(PID.TID 0000.0001) // =======================================================
(PID.TID 0000.0001) %MON time_tsnumber                =                    29
(PID.TID 0000.0001) %MON time_secondsf                =   1.2528000000000E+06
(PID.TID 0000.0001) %MON dynstat_eta_max              =   1.5695414855705E+00
(PID.TID 0000.0001) %MON dynstat_eta_min              =  -1.0437245815769E+00
(PID.TID 0000.0001) %MON dynstat_eta_mean             =   2.6601789721730E-17
(PID.TID 0000.0001) %MON dynstat_eta_sd               =   3.8181576181983E-01
(PID.TID 0000.0001) %MON dynstat_eta_del2             =   1.8569570707517E-02
(PID.TID 0000.0001) %MON dynstat_uvel_max             =   2.0085688557800E-01
(PID.TID 0000.0001) %MON dynstat_uvel_min             =  -2.0138156960401E-01
(PID.TID 0000.0001) %MON dynstat_uvel_mean            =  -5.5026685465431E-03
(PID.TID 0000.0001) %MON dynstat_uvel_sd              =   2.1042919586946E-02
(PID.TID 0000.0001) %MON dynstat_uvel_del2            =   5.5071486597983E-03
(PID.TID 0000.0001) %MON dynstat_vvel_max             =   1.5586027398460E-01
(PID.TID 0000.0001) %MON dynstat_vvel_min             =  -1.5680971855854E-01
(PID.TID 0000.0001) %MON dynstat_vvel_mean            =   2.9372202019451E-03
(PID.TID 0000.0001) %MON dynstat_vvel_sd              =   1.6398017724594E-02
(PID.TID 0000.0001) %MON dynstat_vvel_del2            =   5.3286014558052E-03
(PID.TID 0000.0001) %MON dynstat_wvel_max             =   4.0927790906850E-04
(PID.TID 0000.0001) %MON dynstat_wvel_min             =  -3.8286252127319E-04
(PID.TID 0000.0001) %MON dynstat_wvel_mean            =   6.5362463246619E-22
(PID.TID 0000.0001) %MON dynstat_wvel_sd              =   3.2982511858240E-05
(PID.TID 0000.0001) %MON dynstat_wvel_del2            =   1.3080993335440E-05
(PID.TID 0000.0001) %MON dynstat_theta_max            =   2.9467594228310E+01
(PID.TID 0000.0001) %MON dynstat_theta_min            =  -1.9399036778505E+00
(PID.TID 0000.0001) %MON dynstat_theta_mean           =   3.5937034861499E+00
(PID.TID 0000.0001) %MON dynstat_theta_sd             =   4.3428473361175E+00
(PID.TID 0000.0001) %MON dynstat_theta_del2           =   1.3451303697935E-01
(PID.TID 0000.0001) %MON dynstat_salt_max             =   3.7414149526651E+01
(PID.TID 0000.0001) %MON dynstat_salt_min             =   2.9801298581780E+01
(PID.TID 0000.0001) %MON dynstat_salt_mean            =   3.4716344742116E+01
(PID.TID 0000.0001) %MON dynstat_salt_sd              =   2.9479461353202E-01
(PID.TID 0000.0001) %MON dynstat_salt_del2            =   2.5158647361784E-02
(PID.TID 0000.0001) %MON advcfl_uvel_max              =   3.3297472291525E-02
(PID.TID 0000.0001) %MON advcfl_vvel_max              =   1.5232806695199E-02
(PID.TID 0000.0001) %MON advcfl_wvel_max              =   1.4916691463189E-01
(PID.TID 0000.0001) %MON advcfl_W_hf_max              =   1.0851048940533E-01
(PID.TID 0000.0001) %MON pe_b_mean                    =   1.8654727327974E-04
(PID.TID 0000.0001) %MON ke_max                       =   2.3661899516791E-02
(PID.TID 0000.0001) %MON ke_mean                      =   3.3952104462374E-04
(PID.TID 0000.0001) %MON ke_vol                       =   1.3226782436723E+18
(PID.TID 0000.0001) %MON vort_r_min                   =  -7.4176954880508E-07
(PID.TID 0000.0001) %MON vort_r_max                   =   6.3869070211058E-07
(PID.TID 0000.0001) %MON vort_a_mean                  =  -2.5205769093297E-05
(PID.TID 0000.0001) %MON vort_a_sd                    =   7.3402172078871E-05
(PID.TID 0000.0001) %MON vort_p_mean                  =  -3.1758669179297E-05
(PID.TID 0000.0001) %MON vort_p_sd                    =   1.3126127902971E-04
(PID.TID 0000.0001) %MON surfExpan_theta_mean         =  -6.3617921923520E-06
(PID.TID 0000.0001) %MON surfExpan_salt_mean          =  -2.3219130063480E-06
(PID.TID 0000.0001) // =======================================================
(PID.TID 0000.0001) // End MONITOR dynamic field statistics
(PID.TID 0000.0001) // =======================================================
time,SST,SSS,fu,fv,Q,E-P,i0,i1,a,b =   1.2528E+06  9.2825E-01  3.4703E+01 -3.5795E-02 -5.7473E-02  2.6575E+02  0.0000E+00    12     1  9.8333E-01  1.6667E-02
time,fu0,fu1,fu =   1.2528E+06 -4.5368E-02 -3.5633E-02 -3.5795E-02  9.8333E-01  1.6667E-02
 cg2d: Sum(rhs),rhsMax =   1.32248378914568E-13  1.27132009595264E+01
(PID.TID 0000.0001)                    cg2d_init_res =    5.64189995758438E-01
(PID.TID 0000.0001)                       cg2d_iters =    24
(PID.TID 0000.0001)                         cg2d_res =    9.36737805557787E-14
(PID.TID 0000.0001) // =======================================================
(PID.TID 0000.0001) // Begin MONITOR dynamic field statistics
(PID.TID 0000.0001) // =======================================================
(PID.TID 0000.0001) %MON time_tsnumber                =                    30
(PID.TID 0000.0001) %MON time_secondsf                =   1.2960000000000E+06
(PID.TID 0000.0001) %MON dynstat_eta_max              =   1.4940497976238E+00
(PID.TID 0000.0001) %MON dynstat_eta_min              =  -1.0072652399384E+00
(PID.TID 0000.0001) %MON dynstat_eta_mean             =  -5.2548701442997E-17
(PID.TID 0000.0001) %MON dynstat_eta_sd               =   3.8083179952469E-01
(PID.TID 0000.0001) %MON dynstat_eta_del2             =   1.8748219294902E-02
(PID.TID 0000.0001) %MON dynstat_uvel_max             =   2.0053636025639E-01
(PID.TID 0000.0001) %MON dynstat_uvel_min             =  -1.9628260016729E-01
(PID.TID 0000.0001) %MON dynstat_uvel_mean            =  -5.0813547334455E-03
(PID.TID 0000.0001) %MON dynstat_uvel_sd              =   2.0859112624012E-02
(PID.TID 0000.0001) %MON dynstat_uvel_del2            =   5.5509649100130E-03
(PID.TID 0000.0001) %MON dynstat_vvel_max             =   1.5676103377159E-01
(PID.TID 0000.0001) %MON dynstat_vvel_min             =  -1.5375089499712E-01
(PID.TID 0000.0001) %MON dynstat_vvel_mean            =   3.1119677405198E-03
(PID.TID 0000.0001) %MON dynstat_vvel_sd              =   1.6472160168867E-02
(PID.TID 0000.0001) %MON dynstat_vvel_del2            =   5.3233683211234E-03
(PID.TID 0000.0001) %MON dynstat_wvel_max             =   4.0456017804898E-04
(PID.TID 0000.0001) %MON dynstat_wvel_min             =  -3.8294699597769E-04
(PID.TID 0000.0001) %MON dynstat_wvel_mean            =   3.6899677251344E-22
(PID.TID 0000.0001) %MON dynstat_wvel_sd              =   3.2606679449703E-05
(PID.TID 0000.0001) %MON dynstat_wvel_del2            =   1.2890106936918E-05
(PID.TID 0000.0001) %MON dynstat_theta_max            =   2.9467802275899E+01
(PID.TID 0000.0001) %MON dynstat_theta_min            =  -1.9414390927285E+00
(PID.TID 0000.0001) %MON dynstat_theta_mean           =   3.5938199993032E+00
(PID.TID 0000.0001) %MON dynstat_theta_sd             =   4.3433283634501E+00
(PID.TID 0000.0001) %MON dynstat_theta_del2           =   1.3444990554284E-01
(PID.TID 0000.0001) %MON dynstat_salt_max             =   3.7413145850162E+01
(PID.TID 0000.0001) %MON dynstat_salt_min             =   2.9801744376518E+01
(PID.TID 0000.0001) %MON dynstat_salt_mean            =   3.4716364986310E+01
(PID.TID 0000.0001) %MON dynstat_salt_sd              =   2.9473929267691E-01
(PID.TID 0000.0001) %MON dynstat_salt_del2            =   2.5138892182700E-02
(PID.TID 0000.0001) %MON advcfl_uvel_max              =   3.3511190129748E-02
(PID.TID 0000.0001) %MON advcfl_vvel_max              =   1.5228077358552E-02
(PID.TID 0000.0001) %MON advcfl_wvel_max              =   1.4929202501042E-01
(PID.TID 0000.0001) %MON advcfl_W_hf_max              =   1.0895871953680E-01
(PID.TID 0000.0001) %MON pe_b_mean                    =   1.8558702498874E-04
(PID.TID 0000.0001) %MON ke_max                       =   2.4046245260267E-02
(PID.TID 0000.0001) %MON ke_mean                      =   3.3556476158204E-04
(PID.TID 0000.0001) %MON ke_vol                       =   1.3226782436723E+18
(PID.TID 0000.0001) %MON vort_r_min                   =  -7.4539942976682E-07
(PID.TID 0000.0001) %MON vort_r_max                   =   6.3202724237374E-07
(PID.TID 0000.0001) %MON vort_a_mean                  =  -2.5205769124029E-05
(PID.TID 0000.0001) %MON vort_a_sd                    =   7.3402262161741E-05
(PID.TID 0000.0001) %MON vort_p_mean                  =  -3.1758669218019E-05
(PID.TID 0000.0001) %MON vort_p_sd                    =   1.3126147821602E-04
(PID.TID 0000.0001) %MON surfExpan_theta_mean         =  -6.4004176731691E-06
(PID.TID 0000.0001) %MON surfExpan_salt_mean          =  -2.0171596747200E-06
(PID.TID 0000.0001) // =======================================================
(PID.TID 0000.0001) // End MONITOR dynamic field statistics
(PID.TID 0000.0001) // =======================================================
 S/R EXTERNAL_FIELDS_LOAD: Reading new data  1296000. 30
(PID.TID 0000.0001)  MDSREADFIELD: opening global file: trenberth_taux.bin
(PID.TID 0000.0001)  MDSREADFIELD: opening global file: trenberth_taux.bin
(PID.TID 0000.0001)  MDSREADFIELD: opening global file: trenberth_tauy.bin
(PID.TID 0000.0001)  MDSREADFIELD: opening global file: trenberth_tauy.bin
(PID.TID 0000.0001)  MDSREADFIELD: opening global file: ncep_qnet.bin
(PID.TID 0000.0001)  MDSREADFIELD: opening global file: ncep_qnet.bin
(PID.TID 0000.0001)  MDSREADFIELD: opening global file: lev_sst.bin
(PID.TID 0000.0001)  MDSREADFIELD: opening global file: lev_sst.bin
(PID.TID 0000.0001)  MDSREADFIELD: opening global file: lev_sss.bin
(PID.TID 0000.0001)  MDSREADFIELD: opening global file: lev_sss.bin
time,SST,SSS,fu,fv,Q,E-P,i0,i1,a,b =   1.2960E+06  9.5843E-01  3.4715E+01 -3.5633E-02 -5.7257E-02  2.6577E+02  0.0000E+00     1     2  0.0000E+00  1.0000E+00
time,fu0,fu1,fu =   1.2960E+06 -3.5633E-02 -1.4435E-02 -3.5633E-02  0.0000E+00  1.0000E+00
 cg2d: Sum(rhs),rhsMax =  -9.65963420362925E-14  1.18840510747824E+01
(PID.TID 0000.0001)                    cg2d_init_res =    6.06247055459227E-01
(PID.TID 0000.0001)                       cg2d_iters =    24
(PID.TID 0000.0001)                         cg2d_res =    8.38529373452592E-14
(PID.TID 0000.0001) // =======================================================
(PID.TID 0000.0001) // Begin MONITOR dynamic field statistics
(PID.TID 0000.0001) // =======================================================
(PID.TID 0000.0001) %MON time_tsnumber                =                    31
(PID.TID 0000.0001) %MON time_secondsf                =   1.3392000000000E+06
(PID.TID 0000.0001) %MON dynstat_eta_max              =   1.3963430480475E+00
(PID.TID 0000.0001) %MON dynstat_eta_min              =  -1.0227280002819E+00
(PID.TID 0000.0001) %MON dynstat_eta_mean             =   2.3883185792854E-17
(PID.TID 0000.0001) %MON dynstat_eta_sd               =   3.8038546677596E-01
(PID.TID 0000.0001) %MON dynstat_eta_del2             =   1.8860408165670E-02
(PID.TID 0000.0001) %MON dynstat_uvel_max             =   1.9899663085061E-01
(PID.TID 0000.0001) %MON dynstat_uvel_min             =  -1.9763373116992E-01
(PID.TID 0000.0001) %MON dynstat_uvel_mean            =  -4.6967240792846E-03
(PID.TID 0000.0001) %MON dynstat_uvel_sd              =   2.0627744146512E-02
(PID.TID 0000.0001) %MON dynstat_uvel_del2            =   5.5905318644300E-03
(PID.TID 0000.0001) %MON dynstat_vvel_max             =   1.5724576878908E-01
(PID.TID 0000.0001) %MON dynstat_vvel_min             =  -1.5016751820344E-01
(PID.TID 0000.0001) %MON dynstat_vvel_mean            =   3.2822723664049E-03
(PID.TID 0000.0001) %MON dynstat_vvel_sd              =   1.6533654928781E-02
(PID.TID 0000.0001) %MON dynstat_vvel_del2            =   5.3145688092996E-03
(PID.TID 0000.0001) %MON dynstat_wvel_max             =   3.9746869279983E-04
(PID.TID 0000.0001) %MON dynstat_wvel_min             =  -3.8146983860378E-04
(PID.TID 0000.0001) %MON dynstat_wvel_mean            =   1.9904718796419E-22
(PID.TID 0000.0001) %MON dynstat_wvel_sd              =   3.2306617156730E-05
(PID.TID 0000.0001) %MON dynstat_wvel_del2            =   1.2740827808063E-05
(PID.TID 0000.0001) %MON dynstat_theta_max            =   2.9478435643684E+01
(PID.TID 0000.0001) %MON dynstat_theta_min            =  -1.9426310035081E+00
(PID.TID 0000.0001) %MON dynstat_theta_mean           =   3.5939243240552E+00
(PID.TID 0000.0001) %MON dynstat_theta_sd             =   4.3438876524050E+00
(PID.TID 0000.0001) %MON dynstat_theta_del2           =   1.3436813803539E-01
(PID.TID 0000.0001) %MON dynstat_salt_max             =   3.7412116938815E+01
(PID.TID 0000.0001) %MON dynstat_salt_min             =   2.9802248043314E+01
(PID.TID 0000.0001) %MON dynstat_salt_mean            =   3.4716380246806E+01
(PID.TID 0000.0001) %MON dynstat_salt_sd              =   2.9468029908956E-01
(PID.TID 0000.0001) %MON dynstat_salt_del2            =   2.5126432341663E-02
(PID.TID 0000.0001) %MON advcfl_uvel_max              =   3.3624495943318E-02
(PID.TID 0000.0001) %MON advcfl_vvel_max              =   1.5275165478393E-02
(PID.TID 0000.0001) %MON advcfl_wvel_max              =   1.5530141614971E-01
(PID.TID 0000.0001) %MON advcfl_W_hf_max              =   1.1373106027161E-01
(PID.TID 0000.0001) %MON pe_b_mean                    =   1.8515226598566E-04
(PID.TID 0000.0001) %MON ke_max                       =   2.4265227472697E-02
(PID.TID 0000.0001) %MON ke_mean                      =   3.3089534805741E-04
(PID.TID 0000.0001) %MON ke_vol                       =   1.3226782436723E+18
(PID.TID 0000.0001) %MON vort_r_min                   =  -7.5103953035625E-07
(PID.TID 0000.0001) %MON vort_r_max                   =   6.2899413116457E-07
(PID.TID 0000.0001) %MON vort_a_mean                  =  -2.5205769154847E-05
(PID.TID 0000.0001) %MON vort_a_sd                    =   7.3402346685070E-05
(PID.TID 0000.0001) %MON vort_p_mean                  =  -3.1758669256849E-05
(PID.TID 0000.0001) %MON vort_p_sd                    =   1.3126166415415E-04
(PID.TID 0000.0001) %MON surfExpan_theta_mean         =  -5.7298141485596E-06
(PID.TID 0000.0001) %MON surfExpan_salt_mean          =  -1.6280483775941E-06
(PID.TID 0000.0001) // =======================================================
(PID.TID 0000.0001) // End MONITOR dynamic field statistics
(PID.TID 0000.0001) // =======================================================
time,SST,SSS,fu,fv,Q,E-P,i0,i1,a,b =   1.3392E+06  9.3359E-01  3.4710E+01 -3.5280E-02 -5.6596E-02  2.6535E+02  0.0000E+00     1     2  1.6667E-02  9.8333E-01
time,fu0,fu1,fu =   1.3392E+06 -3.5633E-02 -1.4435E-02 -3.5280E-02  1.6667E-02  9.8333E-01
 cg2d: Sum(rhs),rhsMax =   1.54161405863107E-13  1.08860124062525E+01
(PID.TID 0000.0001)                    cg2d_init_res =    6.60365299276509E-01
(PID.TID 0000.0001)                       cg2d_iters =    24
(PID.TID 0000.0001)                         cg2d_res =    6.71488466422073E-14
(PID.TID 0000.0001) // =======================================================
(PID.TID 0000.0001) // Begin MONITOR dynamic field statistics
(PID.TID 0000.0001) // =======================================================
(PID.TID 0000.0001) %MON time_tsnumber                =                    32
(PID.TID 0000.0001) %MON time_secondsf                =   1.3824000000000E+06
(PID.TID 0000.0001) %MON dynstat_eta_max              =   1.2791861149789E+00
(PID.TID 0000.0001) %MON dynstat_eta_min              =  -1.0353472178970E+00
(PID.TID 0000.0001) %MON dynstat_eta_mean             =   1.8758681143905E-16
(PID.TID 0000.0001) %MON dynstat_eta_sd               =   3.8055396451729E-01
(PID.TID 0000.0001) %MON dynstat_eta_del2             =   1.8925309049844E-02
(PID.TID 0000.0001) %MON dynstat_uvel_max             =   2.0044650907207E-01
(PID.TID 0000.0001) %MON dynstat_uvel_min             =  -1.9842985625346E-01
(PID.TID 0000.0001) %MON dynstat_uvel_mean            =  -4.3516607357008E-03
(PID.TID 0000.0001) %MON dynstat_uvel_sd              =   2.0356270535423E-02
(PID.TID 0000.0001) %MON dynstat_uvel_del2            =   5.6255435934296E-03
(PID.TID 0000.0001) %MON dynstat_vvel_max             =   1.6191516637966E-01
(PID.TID 0000.0001) %MON dynstat_vvel_min             =  -1.5272446559430E-01
(PID.TID 0000.0001) %MON dynstat_vvel_mean            =   3.4397948863205E-03
(PID.TID 0000.0001) %MON dynstat_vvel_sd              =   1.6576922693120E-02
(PID.TID 0000.0001) %MON dynstat_vvel_del2            =   5.3030334034357E-03
(PID.TID 0000.0001) %MON dynstat_wvel_max             =   3.8812766730420E-04
(PID.TID 0000.0001) %MON dynstat_wvel_min             =  -3.7838363600604E-04
(PID.TID 0000.0001) %MON dynstat_wvel_mean            =  -1.6352229588806E-22
(PID.TID 0000.0001) %MON dynstat_wvel_sd              =   3.2065036647711E-05
(PID.TID 0000.0001) %MON dynstat_wvel_del2            =   1.2632347473701E-05
(PID.TID 0000.0001) %MON dynstat_theta_max            =   2.9493556525980E+01
(PID.TID 0000.0001) %MON dynstat_theta_min            =  -1.9434247023925E+00
(PID.TID 0000.0001) %MON dynstat_theta_mean           =   3.5940108719939E+00
(PID.TID 0000.0001) %MON dynstat_theta_sd             =   4.3444932332630E+00
(PID.TID 0000.0001) %MON dynstat_theta_del2           =   1.3431193190654E-01
(PID.TID 0000.0001) %MON dynstat_salt_max             =   3.7411008972568E+01
(PID.TID 0000.0001) %MON dynstat_salt_min             =   2.9802776370019E+01
(PID.TID 0000.0001) %MON dynstat_salt_mean            =   3.4716389995348E+01
(PID.TID 0000.0001) %MON dynstat_salt_sd              =   2.9461996884863E-01
(PID.TID 0000.0001) %MON dynstat_salt_del2            =   2.5105978007030E-02
(PID.TID 0000.0001) %MON advcfl_uvel_max              =   3.3646211148245E-02
(PID.TID 0000.0001) %MON advcfl_vvel_max              =   1.5728760010252E-02
(PID.TID 0000.0001) %MON advcfl_wvel_max              =   1.6870598361887E-01
(PID.TID 0000.0001) %MON advcfl_W_hf_max              =   1.2084120010642E-01
(PID.TID 0000.0001) %MON pe_b_mean                    =   1.8531633454827E-04
(PID.TID 0000.0001) %MON ke_max                       =   2.4297091562286E-02
(PID.TID 0000.0001) %MON ke_mean                      =   3.2554065213453E-04
(PID.TID 0000.0001) %MON ke_vol                       =   1.3226782436723E+18
(PID.TID 0000.0001) %MON vort_r_min                   =  -7.5752127227845E-07
(PID.TID 0000.0001) %MON vort_r_max                   =   6.2717441153194E-07
(PID.TID 0000.0001) %MON vort_a_mean                  =  -2.5205769182830E-05
(PID.TID 0000.0001) %MON vort_a_sd                    =   7.3402424792762E-05
(PID.TID 0000.0001) %MON vort_p_mean                  =  -3.1758669292107E-05
(PID.TID 0000.0001) %MON vort_p_sd                    =   1.3126183683255E-04
(PID.TID 0000.0001) %MON surfExpan_theta_mean         =  -4.4950912093384E-06
(PID.TID 0000.0001) %MON surfExpan_salt_mean          =  -1.1766355215673E-06
(PID.TID 0000.0001) // =======================================================
(PID.TID 0000.0001) // End MONITOR dynamic field statistics
(PID.TID 0000.0001) // =======================================================
time,SST,SSS,fu,fv,Q,E-P,i0,i1,a,b =   1.3824E+06  9.0875E-01  3.4705E+01 -3.4926E-02 -5.5936E-02  2.6493E+02  0.0000E+00     1     2  3.3333E-02  9.6667E-01
time,fu0,fu1,fu =   1.3824E+06 -3.5633E-02 -1.4435E-02 -3.4926E-02  3.3333E-02  9.6667E-01
 cg2d: Sum(rhs),rhsMax =   3.41331130027100E-13  1.02664653546239E+01
(PID.TID 0000.0001)                    cg2d_init_res =    6.92575901705399E-01
(PID.TID 0000.0001)                       cg2d_iters =    25
(PID.TID 0000.0001)                         cg2d_res =    2.80468060668862E-14
(PID.TID 0000.0001) // =======================================================
(PID.TID 0000.0001) // Begin MONITOR dynamic field statistics
(PID.TID 0000.0001) // =======================================================
(PID.TID 0000.0001) %MON time_tsnumber                =                    33
(PID.TID 0000.0001) %MON time_secondsf                =   1.4256000000000E+06
(PID.TID 0000.0001) %MON dynstat_eta_max              =   1.1484866842127E+00
(PID.TID 0000.0001) %MON dynstat_eta_min              =  -1.0463105665022E+00
(PID.TID 0000.0001) %MON dynstat_eta_mean             =   2.3526934371628E-16
(PID.TID 0000.0001) %MON dynstat_eta_sd               =   3.8136146062625E-01
(PID.TID 0000.0001) %MON dynstat_eta_del2             =   1.8936602770839E-02
(PID.TID 0000.0001) %MON dynstat_uvel_max             =   2.1092493085827E-01
(PID.TID 0000.0001) %MON dynstat_uvel_min             =  -1.9869789719648E-01
(PID.TID 0000.0001) %MON dynstat_uvel_mean            =  -4.0475027890005E-03
(PID.TID 0000.0001) %MON dynstat_uvel_sd              =   2.0053461671070E-02
(PID.TID 0000.0001) %MON dynstat_uvel_del2            =   5.6568821616911E-03
(PID.TID 0000.0001) %MON dynstat_vvel_max             =   1.7344439382676E-01
(PID.TID 0000.0001) %MON dynstat_vvel_min             =  -1.5346167238534E-01
(PID.TID 0000.0001) %MON dynstat_vvel_mean            =   3.5771978183843E-03
(PID.TID 0000.0001) %MON dynstat_vvel_sd              =   1.6597174185527E-02
(PID.TID 0000.0001) %MON dynstat_vvel_del2            =   5.2897368033310E-03
(PID.TID 0000.0001) %MON dynstat_wvel_max             =   3.7667328843489E-04
(PID.TID 0000.0001) %MON dynstat_wvel_min             =  -3.7369068043983E-04
(PID.TID 0000.0001) %MON dynstat_wvel_mean            =  -5.9208540595449E-22
(PID.TID 0000.0001) %MON dynstat_wvel_sd              =   3.1864681643751E-05
(PID.TID 0000.0001) %MON dynstat_wvel_del2            =   1.2549909178169E-05
(PID.TID 0000.0001) %MON dynstat_theta_max            =   2.9507682272624E+01
(PID.TID 0000.0001) %MON dynstat_theta_min            =  -1.9437849996843E+00
(PID.TID 0000.0001) %MON dynstat_theta_mean           =   3.5940763294186E+00
(PID.TID 0000.0001) %MON dynstat_theta_sd             =   4.3451118379360E+00
(PID.TID 0000.0001) %MON dynstat_theta_del2           =   1.3422584892389E-01
(PID.TID 0000.0001) %MON dynstat_salt_max             =   3.7409827509194E+01
(PID.TID 0000.0001) %MON dynstat_salt_min             =   2.9803318704629E+01
(PID.TID 0000.0001) %MON dynstat_salt_mean            =   3.4716394001299E+01
(PID.TID 0000.0001) %MON dynstat_salt_sd              =   2.9455737712107E-01
(PID.TID 0000.0001) %MON dynstat_salt_del2            =   2.5084123099240E-02
(PID.TID 0000.0001) %MON advcfl_uvel_max              =   3.3585870138778E-02
(PID.TID 0000.0001) %MON advcfl_vvel_max              =   1.6848732003448E-02
(PID.TID 0000.0001) %MON advcfl_wvel_max              =   1.9182479399087E-01
(PID.TID 0000.0001) %MON advcfl_W_hf_max              =   1.3680846118478E-01
(PID.TID 0000.0001) %MON pe_b_mean                    =   1.8610361307215E-04
(PID.TID 0000.0001) %MON ke_max                       =   2.4129088981796E-02
(PID.TID 0000.0001) %MON ke_mean                      =   3.1955529605649E-04
(PID.TID 0000.0001) %MON ke_vol                       =   1.3226782436723E+18
(PID.TID 0000.0001) %MON vort_r_min                   =  -7.6484975486110E-07
(PID.TID 0000.0001) %MON vort_r_max                   =   6.2686969616682E-07
(PID.TID 0000.0001) %MON vort_a_mean                  =  -2.5205769205704E-05
(PID.TID 0000.0001) %MON vort_a_sd                    =   7.3402495896900E-05
(PID.TID 0000.0001) %MON vort_p_mean                  =  -3.1758669320928E-05
(PID.TID 0000.0001) %MON vort_p_sd                    =   1.3126199637836E-04
(PID.TID 0000.0001) %MON surfExpan_theta_mean         =  -2.8501862234569E-06
(PID.TID 0000.0001) %MON surfExpan_salt_mean          =  -6.8872094136307E-07
(PID.TID 0000.0001) // =======================================================
(PID.TID 0000.0001) // End MONITOR dynamic field statistics
(PID.TID 0000.0001) // =======================================================
time,SST,SSS,fu,fv,Q,E-P,i0,i1,a,b =   1.4256E+06  8.8391E-01  3.4700E+01 -3.4573E-02 -5.5276E-02  2.6451E+02  0.0000E+00     1     2  5.0000E-02  9.5000E-01
time,fu0,fu1,fu =   1.4256E+06 -3.5633E-02 -1.4435E-02 -3.4573E-02  5.0000E-02  9.5000E-01
 cg2d: Sum(rhs),rhsMax =   4.25326440733897E-13  1.03997405742577E+01
(PID.TID 0000.0001)                    cg2d_init_res =    6.69987640527556E-01
(PID.TID 0000.0001)                       cg2d_iters =    25
(PID.TID 0000.0001)                         cg2d_res =    3.21851542394920E-14
(PID.TID 0000.0001) // =======================================================
(PID.TID 0000.0001) // Begin MONITOR dynamic field statistics
(PID.TID 0000.0001) // =======================================================
(PID.TID 0000.0001) %MON time_tsnumber                =                    34
(PID.TID 0000.0001) %MON time_secondsf                =   1.4688000000000E+06
(PID.TID 0000.0001) %MON dynstat_eta_max              =   1.1625651477291E+00
(PID.TID 0000.0001) %MON dynstat_eta_min              =  -1.0540202168244E+00
(PID.TID 0000.0001) %MON dynstat_eta_mean             =   2.5536691249885E-16
(PID.TID 0000.0001) %MON dynstat_eta_sd               =   3.8277631130300E-01
(PID.TID 0000.0001) %MON dynstat_eta_del2             =   1.8952846755875E-02
(PID.TID 0000.0001) %MON dynstat_uvel_max             =   2.1891295806687E-01
(PID.TID 0000.0001) %MON dynstat_uvel_min             =  -1.9846638422116E-01
(PID.TID 0000.0001) %MON dynstat_uvel_mean            =  -3.7841107985466E-03
(PID.TID 0000.0001) %MON dynstat_uvel_sd              =   1.9728881807368E-02
(PID.TID 0000.0001) %MON dynstat_uvel_del2            =   5.6839578678997E-03
(PID.TID 0000.0001) %MON dynstat_vvel_max             =   1.8352459408169E-01
(PID.TID 0000.0001) %MON dynstat_vvel_min             =  -1.5255278287976E-01
(PID.TID 0000.0001) %MON dynstat_vvel_mean            =   3.6881863649528E-03
(PID.TID 0000.0001) %MON dynstat_vvel_sd              =   1.6591177403218E-02
(PID.TID 0000.0001) %MON dynstat_vvel_del2            =   5.2769222352116E-03
(PID.TID 0000.0001) %MON dynstat_wvel_max             =   3.6325627462227E-04
(PID.TID 0000.0001) %MON dynstat_wvel_min             =  -3.6744893641722E-04
(PID.TID 0000.0001) %MON dynstat_wvel_mean            =   1.8659858745706E-23
(PID.TID 0000.0001) %MON dynstat_wvel_sd              =   3.1691410049871E-05
(PID.TID 0000.0001) %MON dynstat_wvel_del2            =   1.2489753173007E-05
(PID.TID 0000.0001) %MON dynstat_theta_max            =   2.9520603894028E+01
(PID.TID 0000.0001) %MON dynstat_theta_min            =  -1.9436938265766E+00
(PID.TID 0000.0001) %MON dynstat_theta_mean           =   3.5941186853620E+00
(PID.TID 0000.0001) %MON dynstat_theta_sd             =   4.3457144199765E+00
(PID.TID 0000.0001) %MON dynstat_theta_del2           =   1.3413475483890E-01
(PID.TID 0000.0001) %MON dynstat_salt_max             =   3.7408558220992E+01
(PID.TID 0000.0001) %MON dynstat_salt_min             =   2.9803856772111E+01
(PID.TID 0000.0001) %MON dynstat_salt_mean            =   3.4716392313490E+01
(PID.TID 0000.0001) %MON dynstat_salt_sd              =   2.9449266554319E-01
(PID.TID 0000.0001) %MON dynstat_salt_del2            =   2.5066382507090E-02
(PID.TID 0000.0001) %MON advcfl_uvel_max              =   3.3453666471468E-02
(PID.TID 0000.0001) %MON advcfl_vvel_max              =   1.7827942624727E-02
(PID.TID 0000.0001) %MON advcfl_wvel_max              =   2.0930676919186E-01
(PID.TID 0000.0001) %MON advcfl_W_hf_max              =   1.4875656319693E-01
(PID.TID 0000.0001) %MON pe_b_mean                    =   1.8748706309469E-04
(PID.TID 0000.0001) %MON ke_max                       =   2.3752069294472E-02
(PID.TID 0000.0001) %MON ke_mean                      =   3.1302444271375E-04
(PID.TID 0000.0001) %MON ke_vol                       =   1.3226782436723E+18
(PID.TID 0000.0001) %MON vort_r_min                   =  -7.7291464501359E-07
(PID.TID 0000.0001) %MON vort_r_max                   =   6.2819263450027E-07
(PID.TID 0000.0001) %MON vort_a_mean                  =  -2.5205769221688E-05
(PID.TID 0000.0001) %MON vort_a_sd                    =   7.3402559675134E-05
(PID.TID 0000.0001) %MON vort_p_mean                  =  -3.1758669341067E-05
(PID.TID 0000.0001) %MON vort_p_sd                    =   1.3126214297585E-04
(PID.TID 0000.0001) %MON surfExpan_theta_mean         =  -9.3872828484540E-07
(PID.TID 0000.0001) %MON surfExpan_salt_mean          =  -1.8979220426470E-07
(PID.TID 0000.0001) // =======================================================
(PID.TID 0000.0001) // End MONITOR dynamic field statistics
(PID.TID 0000.0001) // =======================================================
time,SST,SSS,fu,fv,Q,E-P,i0,i1,a,b =   1.4688E+06  8.5907E-01  3.4695E+01 -3.4220E-02 -5.4615E-02  2.6408E+02  0.0000E+00     1     2  6.6667E-02  9.3333E-01
time,fu0,fu1,fu =   1.4688E+06 -3.5633E-02 -1.4435E-02 -3.4220E-02  6.6667E-02  9.3333E-01
 cg2d: Sum(rhs),rhsMax =  -8.37524494201602E-15  1.04409397634177E+01
(PID.TID 0000.0001)                    cg2d_init_res =    6.48587778076756E-01
(PID.TID 0000.0001)                       cg2d_iters =    25
(PID.TID 0000.0001)                         cg2d_res =    3.48262299995085E-14
(PID.TID 0000.0001) // =======================================================
(PID.TID 0000.0001) // Begin MONITOR dynamic field statistics
(PID.TID 0000.0001) // =======================================================
(PID.TID 0000.0001) %MON time_tsnumber                =                    35
(PID.TID 0000.0001) %MON time_secondsf                =   1.5120000000000E+06
(PID.TID 0000.0001) %MON dynstat_eta_max              =   1.1663992462609E+00
(PID.TID 0000.0001) %MON dynstat_eta_min              =  -1.0578328656149E+00
(PID.TID 0000.0001) %MON dynstat_eta_mean             =  -1.1134843381197E-16
(PID.TID 0000.0001) %MON dynstat_eta_sd               =   3.8471703866983E-01
(PID.TID 0000.0001) %MON dynstat_eta_del2             =   1.8968055925887E-02
(PID.TID 0000.0001) %MON dynstat_uvel_max             =   2.2419147164127E-01
(PID.TID 0000.0001) %MON dynstat_uvel_min             =  -1.9776513057455E-01
(PID.TID 0000.0001) %MON dynstat_uvel_mean            =  -3.5600161292785E-03
(PID.TID 0000.0001) %MON dynstat_uvel_sd              =   1.9392570077708E-02
(PID.TID 0000.0001) %MON dynstat_uvel_del2            =   5.7080059657497E-03
(PID.TID 0000.0001) %MON dynstat_vvel_max             =   1.9198363723761E-01
(PID.TID 0000.0001) %MON dynstat_vvel_min             =  -1.5752541863854E-01
(PID.TID 0000.0001) %MON dynstat_vvel_mean            =   3.7676475355769E-03
(PID.TID 0000.0001) %MON dynstat_vvel_sd              =   1.6557457454054E-02
(PID.TID 0000.0001) %MON dynstat_vvel_del2            =   5.2648408029908E-03
(PID.TID 0000.0001) %MON dynstat_wvel_max             =   3.4804530786264E-04
(PID.TID 0000.0001) %MON dynstat_wvel_min             =  -3.5977252522297E-04
(PID.TID 0000.0001) %MON dynstat_wvel_mean            =  -4.8552400133432E-22
(PID.TID 0000.0001) %MON dynstat_wvel_sd              =   3.1535609882196E-05
(PID.TID 0000.0001) %MON dynstat_wvel_del2            =   1.2452821985107E-05
(PID.TID 0000.0001) %MON dynstat_theta_max            =   2.9532184131279E+01
(PID.TID 0000.0001) %MON dynstat_theta_min            =  -1.9430662760423E+00
(PID.TID 0000.0001) %MON dynstat_theta_mean           =   3.5941374661466E+00
(PID.TID 0000.0001) %MON dynstat_theta_sd             =   4.3462757536243E+00
(PID.TID 0000.0001) %MON dynstat_theta_del2           =   1.3404369608051E-01
(PID.TID 0000.0001) %MON dynstat_salt_max             =   3.7407187974859E+01
(PID.TID 0000.0001) %MON dynstat_salt_min             =   2.9804372197707E+01
(PID.TID 0000.0001) %MON dynstat_salt_mean            =   3.4716385246611E+01
(PID.TID 0000.0001) %MON dynstat_salt_sd              =   2.9442592164249E-01
(PID.TID 0000.0001) %MON dynstat_salt_del2            =   2.5046477818479E-02
(PID.TID 0000.0001) %MON advcfl_uvel_max              =   3.3260379021603E-02
(PID.TID 0000.0001) %MON advcfl_vvel_max              =   1.8649670833953E-02
(PID.TID 0000.0001) %MON advcfl_wvel_max              =   2.2058814753106E-01
(PID.TID 0000.0001) %MON advcfl_W_hf_max              =   1.5629911894057E-01
(PID.TID 0000.0001) %MON pe_b_mean                    =   1.8939305192574E-04
(PID.TID 0000.0001) %MON ke_max                       =   2.3163535970774E-02
(PID.TID 0000.0001) %MON ke_mean                      =   3.0606347485837E-04
(PID.TID 0000.0001) %MON ke_vol                       =   1.3226782436723E+18
(PID.TID 0000.0001) %MON vort_r_min                   =  -7.8152644873266E-07
(PID.TID 0000.0001) %MON vort_r_max                   =   6.3110654574942E-07
(PID.TID 0000.0001) %MON vort_a_mean                  =  -2.5205769229550E-05
(PID.TID 0000.0001) %MON vort_a_sd                    =   7.3402616058954E-05
(PID.TID 0000.0001) %MON vort_p_mean                  =  -3.1758669350973E-05
(PID.TID 0000.0001) %MON vort_p_sd                    =   1.3126227689501E-04
(PID.TID 0000.0001) %MON surfExpan_theta_mean         =   1.1109141183170E-06
(PID.TID 0000.0001) %MON surfExpan_salt_mean          =   2.9659019497945E-07
(PID.TID 0000.0001) // =======================================================
(PID.TID 0000.0001) // End MONITOR dynamic field statistics
(PID.TID 0000.0001) // =======================================================
time,SST,SSS,fu,fv,Q,E-P,i0,i1,a,b =   1.5120E+06  8.3424E-01  3.4690E+01 -3.3866E-02 -5.3955E-02  2.6366E+02  0.0000E+00     1     2  8.3333E-02  9.1667E-01
time,fu0,fu1,fu =   1.5120E+06 -3.5633E-02 -1.4435E-02 -3.3866E-02  8.3333E-02  9.1667E-01
 cg2d: Sum(rhs),rhsMax =   1.41373024398206E-13  1.03873045656276E+01
(PID.TID 0000.0001)                    cg2d_init_res =    6.29996078945972E-01
(PID.TID 0000.0001)                       cg2d_iters =    25
(PID.TID 0000.0001)                         cg2d_res =    3.67656196488184E-14
(PID.TID 0000.0001) // =======================================================
(PID.TID 0000.0001) // Begin MONITOR dynamic field statistics
(PID.TID 0000.0001) // =======================================================
(PID.TID 0000.0001) %MON time_tsnumber                =                    36
(PID.TID 0000.0001) %MON time_secondsf                =   1.5552000000000E+06
(PID.TID 0000.0001) %MON dynstat_eta_max              =   1.1596895509069E+00
(PID.TID 0000.0001) %MON dynstat_eta_min              =  -1.0578993750333E+00
(PID.TID 0000.0001) %MON dynstat_eta_mean             =  -3.1459315161200E-17
(PID.TID 0000.0001) %MON dynstat_eta_sd               =   3.8706581577259E-01
(PID.TID 0000.0001) %MON dynstat_eta_del2             =   1.8909520192032E-02
(PID.TID 0000.0001) %MON dynstat_uvel_max             =   2.2660784970155E-01
(PID.TID 0000.0001) %MON dynstat_uvel_min             =  -1.9662237763982E-01
(PID.TID 0000.0001) %MON dynstat_uvel_mean            =  -3.3725908895626E-03
(PID.TID 0000.0001) %MON dynstat_uvel_sd              =   1.9054580693086E-02
(PID.TID 0000.0001) %MON dynstat_uvel_del2            =   5.7268174148242E-03
(PID.TID 0000.0001) %MON dynstat_vvel_max             =   1.9867568640011E-01
(PID.TID 0000.0001) %MON dynstat_vvel_min             =  -1.6259205334366E-01
(PID.TID 0000.0001) %MON dynstat_vvel_mean            =   3.8116971765030E-03
(PID.TID 0000.0001) %MON dynstat_vvel_sd              =   1.6496197153638E-02
(PID.TID 0000.0001) %MON dynstat_vvel_del2            =   5.2517487223097E-03
(PID.TID 0000.0001) %MON dynstat_wvel_max             =   3.3122454062778E-04
(PID.TID 0000.0001) %MON dynstat_wvel_min             =  -3.5082643485203E-04
(PID.TID 0000.0001) %MON dynstat_wvel_mean            =  -1.5829937487297E-22
(PID.TID 0000.0001) %MON dynstat_wvel_sd              =   3.1391853206842E-05
(PID.TID 0000.0001) %MON dynstat_wvel_del2            =   1.2437245908358E-05
(PID.TID 0000.0001) %MON dynstat_theta_max            =   2.9542340035258E+01
(PID.TID 0000.0001) %MON dynstat_theta_min            =  -1.9464436713541E+00
(PID.TID 0000.0001) %MON dynstat_theta_mean           =   3.5941331668274E+00
(PID.TID 0000.0001) %MON dynstat_theta_sd             =   4.3467745405328E+00
(PID.TID 0000.0001) %MON dynstat_theta_del2           =   1.3394011660397E-01
(PID.TID 0000.0001) %MON dynstat_salt_max             =   3.7405706287360E+01
(PID.TID 0000.0001) %MON dynstat_salt_min             =   2.9804847433332E+01
(PID.TID 0000.0001) %MON dynstat_salt_mean            =   3.4716373336059E+01
(PID.TID 0000.0001) %MON dynstat_salt_sd              =   2.9435774534417E-01
(PID.TID 0000.0001) %MON dynstat_salt_del2            =   2.5023293407256E-02
(PID.TID 0000.0001) %MON advcfl_uvel_max              =   3.3017217006002E-02
(PID.TID 0000.0001) %MON advcfl_vvel_max              =   1.9299749746308E-02
(PID.TID 0000.0001) %MON advcfl_wvel_max              =   2.2530716728814E-01
(PID.TID 0000.0001) %MON advcfl_W_hf_max              =   1.5919401570376E-01
(PID.TID 0000.0001) %MON pe_b_mean                    =   1.9171267879611E-04
(PID.TID 0000.0001) %MON ke_max                       =   2.2368429841358E-02
(PID.TID 0000.0001) %MON ke_mean                      =   2.9881029233289E-04
(PID.TID 0000.0001) %MON ke_vol                       =   1.3226782436723E+18
(PID.TID 0000.0001) %MON vort_r_min                   =  -7.9043429545748E-07
(PID.TID 0000.0001) %MON vort_r_max                   =   6.3544218868651E-07
(PID.TID 0000.0001) %MON vort_a_mean                  =  -2.5205769228641E-05
(PID.TID 0000.0001) %MON vort_a_sd                    =   7.3402665216093E-05
(PID.TID 0000.0001) %MON vort_p_mean                  =  -3.1758669349828E-05
(PID.TID 0000.0001) %MON vort_p_sd                    =   1.3126239851790E-04
(PID.TID 0000.0001) %MON surfExpan_theta_mean         =   3.1843035913980E-06
(PID.TID 0000.0001) %MON surfExpan_salt_mean          =   7.4919974298200E-07
(PID.TID 0000.0001) // =======================================================
(PID.TID 0000.0001) // End MONITOR dynamic field statistics
(PID.TID 0000.0001) // =======================================================
time,SST,SSS,fu,fv,Q,E-P,i0,i1,a,b =   1.5552E+06  8.0940E-01  3.4685E+01 -3.3513E-02 -5.3295E-02  2.6324E+02  0.0000E+00     1     2  1.0000E-01  9.0000E-01
time,fu0,fu1,fu =   1.5552E+06 -3.5633E-02 -1.4435E-02 -3.3513E-02  1.0000E-01  9.0000E-01
 cg2d: Sum(rhs),rhsMax =   2.09464390277248E-13  1.02380208453540E+01
(PID.TID 0000.0001)                    cg2d_init_res =    6.16439655321187E-01
(PID.TID 0000.0001)                       cg2d_iters =    25
(PID.TID 0000.0001)                         cg2d_res =    3.81959122432533E-14
(PID.TID 0000.0001) // =======================================================
(PID.TID 0000.0001) // Begin MONITOR dynamic field statistics
(PID.TID 0000.0001) // =======================================================
(PID.TID 0000.0001) %MON time_tsnumber                =                    37
(PID.TID 0000.0001) %MON time_secondsf                =   1.5984000000000E+06
(PID.TID 0000.0001) %MON dynstat_eta_max              =   1.1423477939690E+00
(PID.TID 0000.0001) %MON dynstat_eta_min              =  -1.0548800137690E+00
(PID.TID 0000.0001) %MON dynstat_eta_mean             =  -1.5037418092356E-16
(PID.TID 0000.0001) %MON dynstat_eta_sd               =   3.8968621361785E-01
(PID.TID 0000.0001) %MON dynstat_eta_del2             =   1.8780483921418E-02
(PID.TID 0000.0001) %MON dynstat_uvel_max             =   2.2607849357212E-01
(PID.TID 0000.0001) %MON dynstat_uvel_min             =  -1.9506271738239E-01
(PID.TID 0000.0001) %MON dynstat_uvel_mean            =  -3.2182486141984E-03
(PID.TID 0000.0001) %MON dynstat_uvel_sd              =   1.8724449989942E-02
(PID.TID 0000.0001) %MON dynstat_uvel_del2            =   5.7404519115191E-03
(PID.TID 0000.0001) %MON dynstat_vvel_max             =   2.0348662520967E-01
(PID.TID 0000.0001) %MON dynstat_vvel_min             =  -1.6469879320499E-01
(PID.TID 0000.0001) %MON dynstat_vvel_mean            =   3.8176829035739E-03
(PID.TID 0000.0001) %MON dynstat_vvel_sd              =   1.6408923239569E-02
(PID.TID 0000.0001) %MON dynstat_vvel_del2            =   5.2397305348885E-03
(PID.TID 0000.0001) %MON dynstat_wvel_max             =   3.1298872744260E-04
(PID.TID 0000.0001) %MON dynstat_wvel_min             =  -3.4081622035382E-04
(PID.TID 0000.0001) %MON dynstat_wvel_mean            =   5.0391754314192E-22
(PID.TID 0000.0001) %MON dynstat_wvel_sd              =   3.1257588811505E-05
(PID.TID 0000.0001) %MON dynstat_wvel_del2            =   1.2437995151493E-05
(PID.TID 0000.0001) %MON dynstat_theta_max            =   2.9551026956572E+01
(PID.TID 0000.0001) %MON dynstat_theta_min            =  -1.9469980188850E+00
(PID.TID 0000.0001) %MON dynstat_theta_mean           =   3.5941072927753E+00
(PID.TID 0000.0001) %MON dynstat_theta_sd             =   4.3471939098143E+00
(PID.TID 0000.0001) %MON dynstat_theta_del2           =   1.3381834395101E-01
(PID.TID 0000.0001) %MON dynstat_salt_max             =   3.7404098615670E+01
(PID.TID 0000.0001) %MON dynstat_salt_min             =   2.9805266571873E+01
(PID.TID 0000.0001) %MON dynstat_salt_mean            =   3.4716357291040E+01
(PID.TID 0000.0001) %MON dynstat_salt_sd              =   2.9428845607774E-01
(PID.TID 0000.0001) %MON dynstat_salt_del2            =   2.4998797235699E-02
(PID.TID 0000.0001) %MON advcfl_uvel_max              =   3.2735586040847E-02
(PID.TID 0000.0001) %MON advcfl_vvel_max              =   1.9767093872566E-02
(PID.TID 0000.0001) %MON advcfl_wvel_max              =   2.2331709524040E-01
(PID.TID 0000.0001) %MON advcfl_W_hf_max              =   1.5735187155350E-01
(PID.TID 0000.0001) %MON pe_b_mean                    =   1.9431721758936E-04
(PID.TID 0000.0001) %MON ke_max                       =   2.1379479069867E-02
(PID.TID 0000.0001) %MON ke_mean                      =   2.9141315971486E-04
(PID.TID 0000.0001) %MON ke_vol                       =   1.3226782436723E+18
(PID.TID 0000.0001) %MON vort_r_min                   =  -7.9934624407737E-07
(PID.TID 0000.0001) %MON vort_r_max                   =   6.4092311699330E-07
(PID.TID 0000.0001) %MON vort_a_mean                  =  -2.5205769218898E-05
(PID.TID 0000.0001) %MON vort_a_sd                    =   7.3402707525955E-05
(PID.TID 0000.0001) %MON vort_p_mean                  =  -3.1758669337552E-05
(PID.TID 0000.0001) %MON vort_p_sd                    =   1.3126250838102E-04
(PID.TID 0000.0001) %MON surfExpan_theta_mean         =   5.1819216048801E-06
(PID.TID 0000.0001) %MON surfExpan_salt_mean          =   1.1498041862631E-06
(PID.TID 0000.0001) // =======================================================
(PID.TID 0000.0001) // End MONITOR dynamic field statistics
(PID.TID 0000.0001) // =======================================================
time,SST,SSS,fu,fv,Q,E-P,i0,i1,a,b =   1.5984E+06  7.8456E-01  3.4680E+01 -3.3160E-02 -5.2634E-02  2.6282E+02  0.0000E+00     1     2  1.1667E-01  8.8333E-01
time,fu0,fu1,fu =   1.5984E+06 -3.5633E-02 -1.4435E-02 -3.3160E-02  1.1667E-01  8.8333E-01
 cg2d: Sum(rhs),rhsMax =   1.27391153181833E-13  9.99413307526834E+00
(PID.TID 0000.0001)                    cg2d_init_res =    6.10424502280089E-01
(PID.TID 0000.0001)                       cg2d_iters =    25
(PID.TID 0000.0001)                         cg2d_res =    3.93399285610672E-14
(PID.TID 0000.0001) // =======================================================
(PID.TID 0000.0001) // Begin MONITOR dynamic field statistics
(PID.TID 0000.0001) // =======================================================
(PID.TID 0000.0001) %MON time_tsnumber                =                    38
(PID.TID 0000.0001) %MON time_secondsf                =   1.6416000000000E+06
(PID.TID 0000.0001) %MON dynstat_eta_max              =   1.1144876982229E+00
(PID.TID 0000.0001) %MON dynstat_eta_min              =  -1.0487793875637E+00
(PID.TID 0000.0001) %MON dynstat_eta_mean             =  -5.1186336863306E-17
(PID.TID 0000.0001) %MON dynstat_eta_sd               =   3.9244128104176E-01
(PID.TID 0000.0001) %MON dynstat_eta_del2             =   1.8697790235654E-02
(PID.TID 0000.0001) %MON dynstat_uvel_max             =   2.2258888380809E-01
(PID.TID 0000.0001) %MON dynstat_uvel_min             =  -1.9310584467456E-01
(PID.TID 0000.0001) %MON dynstat_uvel_mean            =  -3.0926637789864E-03
(PID.TID 0000.0001) %MON dynstat_uvel_sd              =   1.8410653915340E-02
(PID.TID 0000.0001) %MON dynstat_uvel_del2            =   5.7490503791129E-03
(PID.TID 0000.0001) %MON dynstat_vvel_max             =   2.0633809969237E-01
(PID.TID 0000.0001) %MON dynstat_vvel_min             =  -1.6380536246568E-01
(PID.TID 0000.0001) %MON dynstat_vvel_mean            =   3.7841463978999E-03
(PID.TID 0000.0001) %MON dynstat_vvel_sd              =   1.6298096179231E-02
(PID.TID 0000.0001) %MON dynstat_vvel_del2            =   5.2285184547316E-03
(PID.TID 0000.0001) %MON dynstat_wvel_max             =   2.9353785331779E-04
(PID.TID 0000.0001) %MON dynstat_wvel_min             =  -3.2997348496859E-04
(PID.TID 0000.0001) %MON dynstat_wvel_mean            =  -2.4199327216066E-22
(PID.TID 0000.0001) %MON dynstat_wvel_sd              =   3.1131124675199E-05
(PID.TID 0000.0001) %MON dynstat_wvel_del2            =   1.2438286092953E-05
(PID.TID 0000.0001) %MON dynstat_theta_max            =   2.9558225525673E+01
(PID.TID 0000.0001) %MON dynstat_theta_min            =  -1.9470284746042E+00
(PID.TID 0000.0001) %MON dynstat_theta_mean           =   3.5940620062446E+00
(PID.TID 0000.0001) %MON dynstat_theta_sd             =   4.3475228051977E+00
(PID.TID 0000.0001) %MON dynstat_theta_del2           =   1.3369182524800E-01
(PID.TID 0000.0001) %MON dynstat_salt_max             =   3.7402359494110E+01
(PID.TID 0000.0001) %MON dynstat_salt_min             =   2.9805616011958E+01
(PID.TID 0000.0001) %MON dynstat_salt_mean            =   3.4716337963845E+01
(PID.TID 0000.0001) %MON dynstat_salt_sd              =   2.9421878399686E-01
(PID.TID 0000.0001) %MON dynstat_salt_del2            =   2.4970706327132E-02
(PID.TID 0000.0001) %MON advcfl_uvel_max              =   3.2426793760240E-02
(PID.TID 0000.0001) %MON advcfl_vvel_max              =   2.0044091752484E-02
(PID.TID 0000.0001) %MON advcfl_wvel_max              =   2.1469283373477E-01
(PID.TID 0000.0001) %MON advcfl_W_hf_max              =   1.5083990904763E-01
(PID.TID 0000.0001) %MON pe_b_mean                    =   1.9707456180500E-04
(PID.TID 0000.0001) %MON ke_max                       =   2.0216940195134E-02
(PID.TID 0000.0001) %MON ke_mean                      =   2.8401722895087E-04
(PID.TID 0000.0001) %MON ke_vol                       =   1.3226782436723E+18
(PID.TID 0000.0001) %MON vort_r_min                   =  -8.0794646089211E-07
(PID.TID 0000.0001) %MON vort_r_max                   =   6.4718903513818E-07
(PID.TID 0000.0001) %MON vort_a_mean                  =  -2.5205769200741E-05
(PID.TID 0000.0001) %MON vort_a_sd                    =   7.3402743549886E-05
(PID.TID 0000.0001) %MON vort_p_mean                  =  -3.1758669314675E-05
(PID.TID 0000.0001) %MON vort_p_sd                    =   1.3126260717936E-04
(PID.TID 0000.0001) %MON surfExpan_theta_mean         =   7.0230340772037E-06
(PID.TID 0000.0001) %MON surfExpan_salt_mean          =   1.4840124948354E-06
(PID.TID 0000.0001) // =======================================================
(PID.TID 0000.0001) // End MONITOR dynamic field statistics
(PID.TID 0000.0001) // =======================================================
time,SST,SSS,fu,fv,Q,E-P,i0,i1,a,b =   1.6416E+06  7.5972E-01  3.4675E+01 -3.2807E-02 -5.1974E-02  2.6240E+02  0.0000E+00     1     2  1.3333E-01  8.6667E-01
time,fu0,fu1,fu =   1.6416E+06 -3.5633E-02 -1.4435E-02 -3.2807E-02  1.3333E-01  8.6667E-01
 cg2d: Sum(rhs),rhsMax =   2.29295749054614E-13  9.65836288960803E+00
(PID.TID 0000.0001)                    cg2d_init_res =    6.14347671095455E-01
(PID.TID 0000.0001)                       cg2d_iters =    25
(PID.TID 0000.0001)                         cg2d_res =    4.03565581415954E-14
(PID.TID 0000.0001) // =======================================================
(PID.TID 0000.0001) // Begin MONITOR dynamic field statistics
(PID.TID 0000.0001) // =======================================================
(PID.TID 0000.0001) %MON time_tsnumber                =                    39
(PID.TID 0000.0001) %MON time_secondsf                =   1.6848000000000E+06
(PID.TID 0000.0001) %MON dynstat_eta_max              =   1.0764072653806E+00
(PID.TID 0000.0001) %MON dynstat_eta_min              =  -1.0401513472323E+00
(PID.TID 0000.0001) %MON dynstat_eta_mean             =   1.3103690076368E-16
(PID.TID 0000.0001) %MON dynstat_eta_sd               =   3.9520841572425E-01
(PID.TID 0000.0001) %MON dynstat_eta_del2             =   1.8718292822425E-02
(PID.TID 0000.0001) %MON dynstat_uvel_max             =   2.1619153178288E-01
(PID.TID 0000.0001) %MON dynstat_uvel_min             =  -1.9076612649468E-01
(PID.TID 0000.0001) %MON dynstat_uvel_mean            =  -2.9910075591409E-03
(PID.TID 0000.0001) %MON dynstat_uvel_sd              =   1.8120119025430E-02
(PID.TID 0000.0001) %MON dynstat_uvel_del2            =   5.7500690672668E-03
(PID.TID 0000.0001) %MON dynstat_vvel_max             =   2.0719014684311E-01
(PID.TID 0000.0001) %MON dynstat_vvel_min             =  -1.5994263830986E-01
(PID.TID 0000.0001) %MON dynstat_vvel_mean            =   3.7107528811047E-03
(PID.TID 0000.0001) %MON dynstat_vvel_sd              =   1.6166752138274E-02
(PID.TID 0000.0001) %MON dynstat_vvel_del2            =   5.2158737992070E-03
(PID.TID 0000.0001) %MON dynstat_wvel_max             =   2.7307130171417E-04
(PID.TID 0000.0001) %MON dynstat_wvel_min             =  -3.1854133988416E-04
(PID.TID 0000.0001) %MON dynstat_wvel_mean            =  -4.0300836526340E-22
(PID.TID 0000.0001) %MON dynstat_wvel_sd              =   3.1009851620501E-05
(PID.TID 0000.0001) %MON dynstat_wvel_del2            =   1.2438440271979E-05
(PID.TID 0000.0001) %MON dynstat_theta_max            =   2.9563931489261E+01
(PID.TID 0000.0001) %MON dynstat_theta_min            =  -1.9468017811948E+00
(PID.TID 0000.0001) %MON dynstat_theta_mean           =   3.5940001313168E+00
(PID.TID 0000.0001) %MON dynstat_theta_sd             =   4.3477532402679E+00
(PID.TID 0000.0001) %MON dynstat_theta_del2           =   1.3358147551474E-01
(PID.TID 0000.0001) %MON dynstat_salt_max             =   3.7400481827536E+01
(PID.TID 0000.0001) %MON dynstat_salt_min             =   2.9805884941031E+01
(PID.TID 0000.0001) %MON dynstat_salt_mean            =   3.4716316290614E+01
(PID.TID 0000.0001) %MON dynstat_salt_sd              =   2.9414919474477E-01
(PID.TID 0000.0001) %MON dynstat_salt_del2            =   2.4941249959881E-02
(PID.TID 0000.0001) %MON advcfl_uvel_max              =   3.2101756527689E-02
(PID.TID 0000.0001) %MON advcfl_vvel_max              =   2.0126861300582E-02
(PID.TID 0000.0001) %MON advcfl_wvel_max              =   1.9972943480288E-01
(PID.TID 0000.0001) %MON advcfl_W_hf_max              =   1.5676677661286E-01
(PID.TID 0000.0001) %MON pe_b_mean                    =   1.9986353671964E-04
(PID.TID 0000.0001) %MON ke_max                       =   1.8907654144993E-02
(PID.TID 0000.0001) %MON ke_mean                      =   2.7675312446239E-04
(PID.TID 0000.0001) %MON ke_vol                       =   1.3226782436723E+18
(PID.TID 0000.0001) %MON vort_r_min                   =  -8.1591073118380E-07
(PID.TID 0000.0001) %MON vort_r_max                   =   6.5382081952276E-07
(PID.TID 0000.0001) %MON vort_a_mean                  =  -2.5205769175049E-05
(PID.TID 0000.0001) %MON vort_a_sd                    =   7.3402773994484E-05
(PID.TID 0000.0001) %MON vort_p_mean                  =  -3.1758669282304E-05
(PID.TID 0000.0001) %MON vort_p_sd                    =   1.3126269577791E-04
(PID.TID 0000.0001) %MON surfExpan_theta_mean         =   8.6460698325413E-06
(PID.TID 0000.0001) %MON surfExpan_salt_mean          =   1.7416884179929E-06
(PID.TID 0000.0001) // =======================================================
(PID.TID 0000.0001) // End MONITOR dynamic field statistics
(PID.TID 0000.0001) // =======================================================
time,SST,SSS,fu,fv,Q,E-P,i0,i1,a,b =   1.6848E+06  7.3488E-01  3.4671E+01 -3.2453E-02 -5.1313E-02  2.6198E+02  0.0000E+00     1     2  1.5000E-01  8.5000E-01
time,fu0,fu1,fu =   1.6848E+06 -3.5633E-02 -1.4435E-02 -3.2453E-02  1.5000E-01  8.5000E-01
 cg2d: Sum(rhs),rhsMax =  -7.15955073005148E-14  9.23489431210911E+00
(PID.TID 0000.0001)                    cg2d_init_res =    6.30132621173186E-01
(PID.TID 0000.0001)                       cg2d_iters =    25
(PID.TID 0000.0001)                         cg2d_res =    4.13422161600659E-14
(PID.TID 0000.0001) // =======================================================
(PID.TID 0000.0001) // Begin MONITOR dynamic field statistics
(PID.TID 0000.0001) // =======================================================
(PID.TID 0000.0001) %MON time_tsnumber                =                    40
(PID.TID 0000.0001) %MON time_secondsf                =   1.7280000000000E+06
(PID.TID 0000.0001) %MON dynstat_eta_max              =   1.0285673724357E+00
(PID.TID 0000.0001) %MON dynstat_eta_min              =  -1.0642124943167E+00
(PID.TID 0000.0001) %MON dynstat_eta_mean             =   2.1331026107072E-16
(PID.TID 0000.0001) %MON dynstat_eta_sd               =   3.9788880475741E-01
(PID.TID 0000.0001) %MON dynstat_eta_del2             =   1.8737124894412E-02
(PID.TID 0000.0001) %MON dynstat_uvel_max             =   2.0700199908229E-01
(PID.TID 0000.0001) %MON dynstat_uvel_min             =  -1.9766003538861E-01
(PID.TID 0000.0001) %MON dynstat_uvel_mean            =  -2.9081828850417E-03
(PID.TID 0000.0001) %MON dynstat_uvel_sd              =   1.7857869539560E-02
(PID.TID 0000.0001) %MON dynstat_uvel_del2            =   5.7449135849099E-03
(PID.TID 0000.0001) %MON dynstat_vvel_max             =   2.0604219262264E-01
(PID.TID 0000.0001) %MON dynstat_vvel_min             =  -1.5321185022749E-01
(PID.TID 0000.0001) %MON dynstat_vvel_mean            =   3.5981988563496E-03
(PID.TID 0000.0001) %MON dynstat_vvel_sd              =   1.6018283989211E-02
(PID.TID 0000.0001) %MON dynstat_vvel_del2            =   5.2042786247671E-03
(PID.TID 0000.0001) %MON dynstat_wvel_max             =   2.6205599138500E-04
(PID.TID 0000.0001) %MON dynstat_wvel_min             =  -3.0675996219069E-04
(PID.TID 0000.0001) %MON dynstat_wvel_mean            =  -5.9947350305182E-22
(PID.TID 0000.0001) %MON dynstat_wvel_sd              =   3.0889150451436E-05
(PID.TID 0000.0001) %MON dynstat_wvel_del2            =   1.2441290072985E-05
(PID.TID 0000.0001) %MON dynstat_theta_max            =   2.9568149524853E+01
(PID.TID 0000.0001) %MON dynstat_theta_min            =  -1.9463463845599E+00
(PID.TID 0000.0001) %MON dynstat_theta_mean           =   3.5939248593977E+00
(PID.TID 0000.0001) %MON dynstat_theta_sd             =   4.3478810707006E+00
(PID.TID 0000.0001) %MON dynstat_theta_del2           =   1.3351999771653E-01
(PID.TID 0000.0001) %MON dynstat_salt_max             =   3.7398461415302E+01
(PID.TID 0000.0001) %MON dynstat_salt_min             =   2.9806065622264E+01
(PID.TID 0000.0001) %MON dynstat_salt_mean            =   3.4716293242518E+01
(PID.TID 0000.0001) %MON dynstat_salt_sd              =   2.9407976788519E-01
(PID.TID 0000.0001) %MON dynstat_salt_del2            =   2.4912457953552E-02
(PID.TID 0000.0001) %MON advcfl_uvel_max              =   3.1770681748822E-02
(PID.TID 0000.0001) %MON advcfl_vvel_max              =   2.0015346753549E-02
(PID.TID 0000.0001) %MON advcfl_wvel_max              =   1.7893358388794E-01
(PID.TID 0000.0001) %MON advcfl_W_hf_max              =   1.6059435294595E-01
(PID.TID 0000.0001) %MON pe_b_mean                    =   2.0258376568265E-04
(PID.TID 0000.0001) %MON ke_max                       =   1.8285186956629E-02
(PID.TID 0000.0001) %MON ke_mean                      =   2.6973000708912E-04
(PID.TID 0000.0001) %MON ke_vol                       =   1.3226782436723E+18
(PID.TID 0000.0001) %MON vort_r_min                   =  -8.2291933562782E-07
(PID.TID 0000.0001) %MON vort_r_max                   =   6.6036355396376E-07
(PID.TID 0000.0001) %MON vort_a_mean                  =  -2.5205769143016E-05
(PID.TID 0000.0001) %MON vort_a_sd                    =   7.3402799673012E-05
(PID.TID 0000.0001) %MON vort_p_mean                  =  -3.1758669241943E-05
(PID.TID 0000.0001) %MON vort_p_sd                    =   1.3126277518423E-04
(PID.TID 0000.0001) %MON surfExpan_theta_mean         =   1.0006287681945E-05
(PID.TID 0000.0001) %MON surfExpan_salt_mean          =   1.9166330178803E-06
(PID.TID 0000.0001) // =======================================================
(PID.TID 0000.0001) // End MONITOR dynamic field statistics
(PID.TID 0000.0001) // =======================================================
(PID.TID 0000.0001) // Time-average data written, t-step        40
(PID.TID 0000.0001) 
time,SST,SSS,fu,fv,Q,E-P,i0,i1,a,b =   1.7280E+06  7.1005E-01  3.4666E+01 -3.2100E-02 -5.0653E-02  2.6156E+02  0.0000E+00     1     2  1.6667E-01  8.3333E-01
time,fu0,fu1,fu =   1.7280E+06 -3.5633E-02 -1.4435E-02 -3.2100E-02  1.6667E-01  8.3333E-01
 cg2d: Sum(rhs),rhsMax =   8.67361737988404E-14  8.72915944336034E+00
(PID.TID 0000.0001)                    cg2d_init_res =    6.59061085241767E-01
(PID.TID 0000.0001)                       cg2d_iters =    25
(PID.TID 0000.0001)                         cg2d_res =    4.22749859015876E-14
(PID.TID 0000.0001) // =======================================================
(PID.TID 0000.0001) // Begin MONITOR dynamic field statistics
(PID.TID 0000.0001) // =======================================================
(PID.TID 0000.0001) %MON time_tsnumber                =                    41
(PID.TID 0000.0001) %MON time_secondsf                =   1.7712000000000E+06
(PID.TID 0000.0001) %MON dynstat_eta_max              =   9.7157014730430E-01
(PID.TID 0000.0001) %MON dynstat_eta_min              =  -1.0802093723411E+00
(PID.TID 0000.0001) %MON dynstat_eta_mean             =  -1.3209042659190E-16
(PID.TID 0000.0001) %MON dynstat_eta_sd               =   4.0041082138308E-01
(PID.TID 0000.0001) %MON dynstat_eta_del2             =   1.8808384054601E-02
(PID.TID 0000.0001) %MON dynstat_uvel_max             =   1.9960909271594E-01
(PID.TID 0000.0001) %MON dynstat_uvel_min             =  -2.0871084997114E-01
(PID.TID 0000.0001) %MON dynstat_uvel_mean            =  -2.8390554557612E-03
(PID.TID 0000.0001) %MON dynstat_uvel_sd              =   1.7626863879905E-02
(PID.TID 0000.0001) %MON dynstat_uvel_del2            =   5.7336714010251E-03
(PID.TID 0000.0001) %MON dynstat_vvel_max             =   2.0293250120925E-01
(PID.TID 0000.0001) %MON dynstat_vvel_min             =  -1.5273613271726E-01
(PID.TID 0000.0001) %MON dynstat_vvel_mean            =   3.4481026475180E-03
(PID.TID 0000.0001) %MON dynstat_vvel_sd              =   1.5856395834892E-02
(PID.TID 0000.0001) %MON dynstat_vvel_del2            =   5.1931317149471E-03
(PID.TID 0000.0001) %MON dynstat_wvel_max             =   2.6970433552164E-04
(PID.TID 0000.0001) %MON dynstat_wvel_min             =  -2.9485409841297E-04
(PID.TID 0000.0001) %MON dynstat_wvel_mean            =  -2.4402204746955E-22
(PID.TID 0000.0001) %MON dynstat_wvel_sd              =   3.0762414016956E-05
(PID.TID 0000.0001) %MON dynstat_wvel_del2            =   1.2436683533030E-05
(PID.TID 0000.0001) %MON dynstat_theta_max            =   2.9571084087273E+01
(PID.TID 0000.0001) %MON dynstat_theta_min            =  -1.9457008204609E+00
(PID.TID 0000.0001) %MON dynstat_theta_mean           =   3.5938394775105E+00
(PID.TID 0000.0001) %MON dynstat_theta_sd             =   4.3479098508457E+00
(PID.TID 0000.0001) %MON dynstat_theta_del2           =   1.3341460000824E-01
(PID.TID 0000.0001) %MON dynstat_salt_max             =   3.7396296594561E+01
(PID.TID 0000.0001) %MON dynstat_salt_min             =   2.9806153482791E+01
(PID.TID 0000.0001) %MON dynstat_salt_mean            =   3.4716269785966E+01
(PID.TID 0000.0001) %MON dynstat_salt_sd              =   2.9401242786534E-01
(PID.TID 0000.0001) %MON dynstat_salt_del2            =   2.4874634458870E-02
(PID.TID 0000.0001) %MON advcfl_uvel_max              =   3.1442827107110E-02
(PID.TID 0000.0001) %MON advcfl_vvel_max              =   1.9713265169465E-02
(PID.TID 0000.0001) %MON advcfl_wvel_max              =   1.8629060423166E-01
(PID.TID 0000.0001) %MON advcfl_W_hf_max              =   1.6002804884521E-01
(PID.TID 0000.0001) %MON pe_b_mean                    =   2.0516005760156E-04
(PID.TID 0000.0001) %MON ke_max                       =   1.8302378429494E-02
(PID.TID 0000.0001) %MON ke_mean                      =   2.6303398774166E-04
(PID.TID 0000.0001) %MON ke_vol                       =   1.3226782436723E+18
(PID.TID 0000.0001) %MON vort_r_min                   =  -8.2866356375029E-07
(PID.TID 0000.0001) %MON vort_r_max                   =   6.6634668406077E-07
(PID.TID 0000.0001) %MON vort_a_mean                  =  -2.5205769106052E-05
(PID.TID 0000.0001) %MON vort_a_sd                    =   7.3402821463552E-05
(PID.TID 0000.0001) %MON vort_p_mean                  =  -3.1758669195368E-05
(PID.TID 0000.0001) %MON vort_p_sd                    =   1.3126284648397E-04
(PID.TID 0000.0001) %MON surfExpan_theta_mean         =   1.1087259620524E-05
(PID.TID 0000.0001) %MON surfExpan_salt_mean          =   2.0081153521737E-06
(PID.TID 0000.0001) // =======================================================
(PID.TID 0000.0001) // End MONITOR dynamic field statistics
(PID.TID 0000.0001) // =======================================================
time,SST,SSS,fu,fv,Q,E-P,i0,i1,a,b =   1.7712E+06  6.8521E-01  3.4661E+01 -3.1747E-02 -4.9993E-02  2.6113E+02  0.0000E+00     1     2  1.8333E-01  8.1667E-01
time,fu0,fu1,fu =   1.7712E+06 -3.5633E-02 -1.4435E-02 -3.1747E-02  1.8333E-01  8.1667E-01
 cg2d: Sum(rhs),rhsMax =  -2.89004931097736E-13  8.14764791556401E+00
(PID.TID 0000.0001)                    cg2d_init_res =    7.01965840592900E-01
(PID.TID 0000.0001)                       cg2d_iters =    25
(PID.TID 0000.0001)                         cg2d_res =    4.30791737600664E-14
(PID.TID 0000.0001) // =======================================================
(PID.TID 0000.0001) // Begin MONITOR dynamic field statistics
(PID.TID 0000.0001) // =======================================================
(PID.TID 0000.0001) %MON time_tsnumber                =                    42
(PID.TID 0000.0001) %MON time_secondsf                =   1.8144000000000E+06
(PID.TID 0000.0001) %MON dynstat_eta_max              =   9.0613942378044E-01
(PID.TID 0000.0001) %MON dynstat_eta_min              =  -1.0864506756471E+00
(PID.TID 0000.0001) %MON dynstat_eta_mean             =  -1.4324407750546E-16
(PID.TID 0000.0001) %MON dynstat_eta_sd               =   4.0272822274137E-01
(PID.TID 0000.0001) %MON dynstat_eta_del2             =   1.8931130585447E-02
(PID.TID 0000.0001) %MON dynstat_uvel_max             =   1.9213235185539E-01
(PID.TID 0000.0001) %MON dynstat_uvel_min             =  -2.1685310975211E-01
(PID.TID 0000.0001) %MON dynstat_uvel_mean            =  -2.7786625242478E-03
(PID.TID 0000.0001) %MON dynstat_uvel_sd              =   1.7428044331837E-02
(PID.TID 0000.0001) %MON dynstat_uvel_del2            =   5.7156345242689E-03
(PID.TID 0000.0001) %MON dynstat_vvel_max             =   1.9793625363776E-01
(PID.TID 0000.0001) %MON dynstat_vvel_min             =  -1.5372757311730E-01
(PID.TID 0000.0001) %MON dynstat_vvel_mean            =   3.2628791511676E-03
(PID.TID 0000.0001) %MON dynstat_vvel_sd              =   1.5685211960021E-02
(PID.TID 0000.0001) %MON dynstat_vvel_del2            =   5.1820440669086E-03
(PID.TID 0000.0001) %MON dynstat_wvel_max             =   2.7663209519131E-04
(PID.TID 0000.0001) %MON dynstat_wvel_min             =  -2.8302406555142E-04
(PID.TID 0000.0001) %MON dynstat_wvel_mean            =  -6.1857668951013E-22
(PID.TID 0000.0001) %MON dynstat_wvel_sd              =   3.0621861535149E-05
(PID.TID 0000.0001) %MON dynstat_wvel_del2            =   1.2420625800768E-05
(PID.TID 0000.0001) %MON dynstat_theta_max            =   2.9581255586378E+01
(PID.TID 0000.0001) %MON dynstat_theta_min            =  -1.9448925468411E+00
(PID.TID 0000.0001) %MON dynstat_theta_mean           =   3.5937471909773E+00
(PID.TID 0000.0001) %MON dynstat_theta_sd             =   4.3478443086148E+00
(PID.TID 0000.0001) %MON dynstat_theta_del2           =   1.3331747341674E-01
(PID.TID 0000.0001) %MON dynstat_salt_max             =   3.7393988125025E+01
(PID.TID 0000.0001) %MON dynstat_salt_min             =   2.9806147010772E+01
(PID.TID 0000.0001) %MON dynstat_salt_mean            =   3.4716246820209E+01
(PID.TID 0000.0001) %MON dynstat_salt_sd              =   2.9394725499944E-01
(PID.TID 0000.0001) %MON dynstat_salt_del2            =   2.4841384869888E-02
(PID.TID 0000.0001) %MON advcfl_uvel_max              =   3.1126330594507E-02
(PID.TID 0000.0001) %MON advcfl_vvel_max              =   1.9227919782983E-02
(PID.TID 0000.0001) %MON advcfl_wvel_max              =   1.8859177554436E-01
(PID.TID 0000.0001) %MON advcfl_W_hf_max              =   1.5496855596936E-01
(PID.TID 0000.0001) %MON pe_b_mean                    =   2.0754168159401E-04
(PID.TID 0000.0001) %MON ke_max                       =   1.8267160317983E-02
(PID.TID 0000.0001) %MON ke_mean                      =   2.5673137154528E-04
(PID.TID 0000.0001) %MON ke_vol                       =   1.3226782436723E+18
(PID.TID 0000.0001) %MON vort_r_min                   =  -8.3285024784721E-07
(PID.TID 0000.0001) %MON vort_r_max                   =   6.7130206104814E-07
(PID.TID 0000.0001) %MON vort_a_mean                  =  -2.5205769065685E-05
(PID.TID 0000.0001) %MON vort_a_sd                    =   7.3402840267983E-05
(PID.TID 0000.0001) %MON vort_p_mean                  =  -3.1758669144507E-05
(PID.TID 0000.0001) %MON vort_p_sd                    =   1.3126291076840E-04
(PID.TID 0000.0001) %MON surfExpan_theta_mean         =   1.1881339060292E-05
(PID.TID 0000.0001) %MON surfExpan_salt_mean          =   2.0177234743025E-06
(PID.TID 0000.0001) // =======================================================
(PID.TID 0000.0001) // End MONITOR dynamic field statistics
(PID.TID 0000.0001) // =======================================================
time,SST,SSS,fu,fv,Q,E-P,i0,i1,a,b =   1.8144E+06  6.6037E-01  3.4656E+01 -3.1393E-02 -4.9332E-02  2.6071E+02  0.0000E+00     1     2  2.0000E-01  8.0000E-01
time,fu0,fu1,fu =   1.8144E+06 -3.5633E-02 -1.4435E-02 -3.1393E-02  2.0000E-01  8.0000E-01
 cg2d: Sum(rhs),rhsMax =   4.34166591567475E-13  7.68469225012547E+00
(PID.TID 0000.0001)                    cg2d_init_res =    7.41331539977257E-01
(PID.TID 0000.0001)                       cg2d_iters =    25
(PID.TID 0000.0001)                         cg2d_res =    4.26677709895171E-14
(PID.TID 0000.0001) // =======================================================
(PID.TID 0000.0001) // Begin MONITOR dynamic field statistics
(PID.TID 0000.0001) // =======================================================
(PID.TID 0000.0001) %MON time_tsnumber                =                    43
(PID.TID 0000.0001) %MON time_secondsf                =   1.8576000000000E+06
(PID.TID 0000.0001) %MON dynstat_eta_max              =   8.3355386955783E-01
(PID.TID 0000.0001) %MON dynstat_eta_min              =  -1.1081347960174E+00
(PID.TID 0000.0001) %MON dynstat_eta_mean             =   2.6391102175193E-16
(PID.TID 0000.0001) %MON dynstat_eta_sd               =   4.0481491999127E-01
(PID.TID 0000.0001) %MON dynstat_eta_del2             =   1.9057915626024E-02
(PID.TID 0000.0001) %MON dynstat_uvel_max             =   1.8116953038392E-01
(PID.TID 0000.0001) %MON dynstat_uvel_min             =  -2.2182694669176E-01
(PID.TID 0000.0001) %MON dynstat_uvel_mean            =  -2.7224004213661E-03
(PID.TID 0000.0001) %MON dynstat_uvel_sd              =   1.7260601954884E-02
(PID.TID 0000.0001) %MON dynstat_uvel_del2            =   5.6914372154169E-03
(PID.TID 0000.0001) %MON dynstat_vvel_max             =   1.9116249247854E-01
(PID.TID 0000.0001) %MON dynstat_vvel_min             =  -1.5403098112558E-01
(PID.TID 0000.0001) %MON dynstat_vvel_mean            =   3.0456056851131E-03
(PID.TID 0000.0001) %MON dynstat_vvel_sd              =   1.5509448623634E-02
(PID.TID 0000.0001) %MON dynstat_vvel_del2            =   5.1714800818714E-03
(PID.TID 0000.0001) %MON dynstat_wvel_max             =   2.8286999927084E-04
(PID.TID 0000.0001) %MON dynstat_wvel_min             =  -2.7144058631007E-04
(PID.TID 0000.0001) %MON dynstat_wvel_mean            =  -5.7572922960220E-22
(PID.TID 0000.0001) %MON dynstat_wvel_sd              =   3.0460067304629E-05
(PID.TID 0000.0001) %MON dynstat_wvel_del2            =   1.2390752813334E-05
(PID.TID 0000.0001) %MON dynstat_theta_max            =   2.9591806149703E+01
(PID.TID 0000.0001) %MON dynstat_theta_min            =  -1.9439601872690E+00
(PID.TID 0000.0001) %MON dynstat_theta_mean           =   3.5936509691013E+00
(PID.TID 0000.0001) %MON dynstat_theta_sd             =   4.3476943852429E+00
(PID.TID 0000.0001) %MON dynstat_theta_del2           =   1.3318219426632E-01
(PID.TID 0000.0001) %MON dynstat_salt_max             =   3.7391643341026E+01
(PID.TID 0000.0001) %MON dynstat_salt_min             =   2.9806047480809E+01
(PID.TID 0000.0001) %MON dynstat_salt_mean            =   3.4716225165221E+01
(PID.TID 0000.0001) %MON dynstat_salt_sd              =   2.9388585462329E-01
(PID.TID 0000.0001) %MON dynstat_salt_del2            =   2.4801571785174E-02
(PID.TID 0000.0001) %MON advcfl_uvel_max              =   3.0828093609080E-02
(PID.TID 0000.0001) %MON advcfl_vvel_max              =   1.8569903205400E-02
(PID.TID 0000.0001) %MON advcfl_wvel_max              =   1.8480872783460E-01
(PID.TID 0000.0001) %MON advcfl_W_hf_max              =   1.4555346493552E-01
(PID.TID 0000.0001) %MON pe_b_mean                    =   2.0969796766517E-04
(PID.TID 0000.0001) %MON ke_max                       =   1.8407427109141E-02
(PID.TID 0000.0001) %MON ke_mean                      =   2.5087508300624E-04
(PID.TID 0000.0001) %MON ke_vol                       =   1.3226782436723E+18
(PID.TID 0000.0001) %MON vort_r_min                   =  -8.3785623568059E-07
(PID.TID 0000.0001) %MON vort_r_max                   =   6.7477700917010E-07
(PID.TID 0000.0001) %MON vort_a_mean                  =  -2.5205769023347E-05
(PID.TID 0000.0001) %MON vort_a_sd                    =   7.3402856973488E-05
(PID.TID 0000.0001) %MON vort_p_mean                  =  -3.1758669091162E-05
(PID.TID 0000.0001) %MON vort_p_sd                    =   1.3126296905750E-04
(PID.TID 0000.0001) %MON surfExpan_theta_mean         =   1.2399342330334E-05
(PID.TID 0000.0001) %MON surfExpan_salt_mean          =   1.9506646250789E-06
(PID.TID 0000.0001) // =======================================================
(PID.TID 0000.0001) // End MONITOR dynamic field statistics
(PID.TID 0000.0001) // =======================================================
time,SST,SSS,fu,fv,Q,E-P,i0,i1,a,b =   1.8576E+06  6.3553E-01  3.4651E+01 -3.1040E-02 -4.8672E-02  2.6029E+02  0.0000E+00     1     2  2.1667E-01  7.8333E-01
time,fu0,fu1,fu =   1.8576E+06 -3.5633E-02 -1.4435E-02 -3.1040E-02  2.1667E-01  7.8333E-01
 cg2d: Sum(rhs),rhsMax =   2.94195223737859E-13  7.71510904649464E+00
(PID.TID 0000.0001)                    cg2d_init_res =    7.34299222106869E-01
(PID.TID 0000.0001)                       cg2d_iters =    25
(PID.TID 0000.0001)                         cg2d_res =    3.89604504510856E-14
(PID.TID 0000.0001) // =======================================================
(PID.TID 0000.0001) // Begin MONITOR dynamic field statistics
(PID.TID 0000.0001) // =======================================================
(PID.TID 0000.0001) %MON time_tsnumber                =                    44
(PID.TID 0000.0001) %MON time_secondsf                =   1.9008000000000E+06
(PID.TID 0000.0001) %MON dynstat_eta_max              =   8.9426613488475E-01
(PID.TID 0000.0001) %MON dynstat_eta_min              =  -1.1294868131468E+00
(PID.TID 0000.0001) %MON dynstat_eta_mean             =   3.6634385263523E-17
(PID.TID 0000.0001) %MON dynstat_eta_sd               =   4.0665848745976E-01
(PID.TID 0000.0001) %MON dynstat_eta_del2             =   1.9164921672558E-02
(PID.TID 0000.0001) %MON dynstat_uvel_max             =   1.6697025682221E-01
(PID.TID 0000.0001) %MON dynstat_uvel_min             =  -2.2350757702692E-01
(PID.TID 0000.0001) %MON dynstat_uvel_mean            =  -2.6661722406689E-03
(PID.TID 0000.0001) %MON dynstat_uvel_sd              =   1.7122401837822E-02
(PID.TID 0000.0001) %MON dynstat_uvel_del2            =   5.6632058173493E-03
(PID.TID 0000.0001) %MON dynstat_vvel_max             =   1.8369155692790E-01
(PID.TID 0000.0001) %MON dynstat_vvel_min             =  -1.5364506503882E-01
(PID.TID 0000.0001) %MON dynstat_vvel_mean            =   2.7998960303030E-03
(PID.TID 0000.0001) %MON dynstat_vvel_sd              =   1.5334539634419E-02
(PID.TID 0000.0001) %MON dynstat_vvel_del2            =   5.1603278165793E-03
(PID.TID 0000.0001) %MON dynstat_wvel_max             =   2.8844918546892E-04
(PID.TID 0000.0001) %MON dynstat_wvel_min             =  -2.6024370523927E-04
(PID.TID 0000.0001) %MON dynstat_wvel_mean            =   2.0141123657554E-22
(PID.TID 0000.0001) %MON dynstat_wvel_sd              =   3.0271514203645E-05
(PID.TID 0000.0001) %MON dynstat_wvel_del2            =   1.2348495314937E-05
(PID.TID 0000.0001) %MON dynstat_theta_max            =   2.9606631768140E+01
(PID.TID 0000.0001) %MON dynstat_theta_min            =  -1.9430441349619E+00
(PID.TID 0000.0001) %MON dynstat_theta_mean           =   3.5935535435753E+00
(PID.TID 0000.0001) %MON dynstat_theta_sd             =   4.3474705237417E+00
(PID.TID 0000.0001) %MON dynstat_theta_del2           =   1.3304882459189E-01
(PID.TID 0000.0001) %MON dynstat_salt_max             =   3.7389300454292E+01
(PID.TID 0000.0001) %MON dynstat_salt_min             =   2.9805858536414E+01
(PID.TID 0000.0001) %MON dynstat_salt_mean            =   3.4716205533683E+01
(PID.TID 0000.0001) %MON dynstat_salt_sd              =   2.9382881349631E-01
(PID.TID 0000.0001) %MON dynstat_salt_del2            =   2.4761130981809E-02
(PID.TID 0000.0001) %MON advcfl_uvel_max              =   3.0553749078866E-02
(PID.TID 0000.0001) %MON advcfl_vvel_max              =   1.7844161726355E-02
(PID.TID 0000.0001) %MON advcfl_wvel_max              =   1.7525684727189E-01
(PID.TID 0000.0001) %MON advcfl_W_hf_max              =   1.3805886834652E-01
(PID.TID 0000.0001) %MON pe_b_mean                    =   2.1161228762869E-04
(PID.TID 0000.0001) %MON ke_max                       =   1.8575046692299E-02
(PID.TID 0000.0001) %MON ke_mean                      =   2.4551182570566E-04
(PID.TID 0000.0001) %MON ke_vol                       =   1.3226782436723E+18
(PID.TID 0000.0001) %MON vort_r_min                   =  -8.6003589695730E-07
(PID.TID 0000.0001) %MON vort_r_max                   =   6.7634722291885E-07
(PID.TID 0000.0001) %MON vort_a_mean                  =  -2.5205768980248E-05
(PID.TID 0000.0001) %MON vort_a_sd                    =   7.3402872418155E-05
(PID.TID 0000.0001) %MON vort_p_mean                  =  -3.1758669036859E-05
(PID.TID 0000.0001) %MON vort_p_sd                    =   1.3126302225687E-04
(PID.TID 0000.0001) %MON surfExpan_theta_mean         =   1.2664571828855E-05
(PID.TID 0000.0001) %MON surfExpan_salt_mean          =   1.8150393595367E-06
(PID.TID 0000.0001) // =======================================================
(PID.TID 0000.0001) // End MONITOR dynamic field statistics
(PID.TID 0000.0001) // =======================================================
time,SST,SSS,fu,fv,Q,E-P,i0,i1,a,b =   1.9008E+06  6.1069E-01  3.4646E+01 -3.0687E-02 -4.8012E-02  2.5987E+02  0.0000E+00     1     2  2.3333E-01  7.6667E-01
time,fu0,fu1,fu =   1.9008E+06 -3.5633E-02 -1.4435E-02 -3.0687E-02  2.3333E-01  7.6667E-01
 cg2d: Sum(rhs),rhsMax =   1.34614541735800E-13  7.94458113352408E+00
(PID.TID 0000.0001)                    cg2d_init_res =    7.06079108937279E-01
(PID.TID 0000.0001)                       cg2d_iters =    25
(PID.TID 0000.0001)                         cg2d_res =    3.40411682974403E-14
(PID.TID 0000.0001) // =======================================================
(PID.TID 0000.0001) // Begin MONITOR dynamic field statistics
(PID.TID 0000.0001) // =======================================================
(PID.TID 0000.0001) %MON time_tsnumber                =                    45
(PID.TID 0000.0001) %MON time_secondsf                =   1.9440000000000E+06
(PID.TID 0000.0001) %MON dynstat_eta_max              =   9.6110825863033E-01
(PID.TID 0000.0001) %MON dynstat_eta_min              =  -1.1438713253088E+00
(PID.TID 0000.0001) %MON dynstat_eta_mean             =  -7.3621829780766E-17
(PID.TID 0000.0001) %MON dynstat_eta_sd               =   4.0825439367676E-01
(PID.TID 0000.0001) %MON dynstat_eta_del2             =   1.9223584005682E-02
(PID.TID 0000.0001) %MON dynstat_uvel_max             =   1.4986118863570E-01
(PID.TID 0000.0001) %MON dynstat_uvel_min             =  -2.2190073152242E-01
(PID.TID 0000.0001) %MON dynstat_uvel_mean            =  -2.6064972128328E-03
(PID.TID 0000.0001) %MON dynstat_uvel_sd              =   1.7010500195589E-02
(PID.TID 0000.0001) %MON dynstat_uvel_del2            =   5.6305599842974E-03
(PID.TID 0000.0001) %MON dynstat_vvel_max             =   1.7501479336192E-01
(PID.TID 0000.0001) %MON dynstat_vvel_min             =  -1.5257497937582E-01
(PID.TID 0000.0001) %MON dynstat_vvel_mean            =   2.5297671682323E-03
(PID.TID 0000.0001) %MON dynstat_vvel_sd              =   1.5166624284930E-02
(PID.TID 0000.0001) %MON dynstat_vvel_del2            =   5.1482184231316E-03
(PID.TID 0000.0001) %MON dynstat_wvel_max             =   2.9339932242190E-04
(PID.TID 0000.0001) %MON dynstat_wvel_min             =  -2.4954385295076E-04
(PID.TID 0000.0001) %MON dynstat_wvel_mean            =   4.4916440909923E-22
(PID.TID 0000.0001) %MON dynstat_wvel_sd              =   3.0053920125057E-05
(PID.TID 0000.0001) %MON dynstat_wvel_del2            =   1.2289107236017E-05
(PID.TID 0000.0001) %MON dynstat_theta_max            =   2.9620324185575E+01
(PID.TID 0000.0001) %MON dynstat_theta_min            =  -1.9423409107957E+00
(PID.TID 0000.0001) %MON dynstat_theta_mean           =   3.5934571957929E+00
(PID.TID 0000.0001) %MON dynstat_theta_sd             =   4.3471849881066E+00
(PID.TID 0000.0001) %MON dynstat_theta_del2           =   1.3293987327735E-01
(PID.TID 0000.0001) %MON dynstat_salt_max             =   3.7386927885663E+01
(PID.TID 0000.0001) %MON dynstat_salt_min             =   2.9805585665262E+01
(PID.TID 0000.0001) %MON dynstat_salt_mean            =   3.4716188501676E+01
(PID.TID 0000.0001) %MON dynstat_salt_sd              =   2.9377705107590E-01
(PID.TID 0000.0001) %MON dynstat_salt_del2            =   2.4728554261040E-02
(PID.TID 0000.0001) %MON advcfl_uvel_max              =   3.0307693383505E-02
(PID.TID 0000.0001) %MON advcfl_vvel_max              =   1.7001283725199E-02
(PID.TID 0000.0001) %MON advcfl_wvel_max              =   1.6044264955053E-01
(PID.TID 0000.0001) %MON advcfl_W_hf_max              =   1.2653242990995E-01
(PID.TID 0000.0001) %MON pe_b_mean                    =   2.1327646552497E-04
(PID.TID 0000.0001) %MON ke_max                       =   1.8718020318745E-02
(PID.TID 0000.0001) %MON ke_mean                      =   2.4068794820509E-04
(PID.TID 0000.0001) %MON ke_vol                       =   1.3226782436723E+18
(PID.TID 0000.0001) %MON vort_r_min                   =  -8.8170187425610E-07
(PID.TID 0000.0001) %MON vort_r_max                   =   6.7562802968436E-07
(PID.TID 0000.0001) %MON vort_a_mean                  =  -2.5205768937772E-05
(PID.TID 0000.0001) %MON vort_a_sd                    =   7.3402887357079E-05
(PID.TID 0000.0001) %MON vort_p_mean                  =  -3.1758668983340E-05
(PID.TID 0000.0001) %MON vort_p_sd                    =   1.3126307106215E-04
(PID.TID 0000.0001) %MON surfExpan_theta_mean         =   1.2709307181020E-05
(PID.TID 0000.0001) %MON surfExpan_salt_mean          =   1.6215737475243E-06
(PID.TID 0000.0001) // =======================================================
(PID.TID 0000.0001) // End MONITOR dynamic field statistics
(PID.TID 0000.0001) // =======================================================
time,SST,SSS,fu,fv,Q,E-P,i0,i1,a,b =   1.9440E+06  5.8585E-01  3.4641E+01 -3.0333E-02 -4.7351E-02  2.5945E+02  0.0000E+00     1     2  2.5000E-01  7.5000E-01
time,fu0,fu1,fu =   1.9440E+06 -3.5633E-02 -1.4435E-02 -3.0333E-02  2.5000E-01  7.5000E-01
 cg2d: Sum(rhs),rhsMax =  -9.75608482889356E-15  8.35758900805885E+00
(PID.TID 0000.0001)                    cg2d_init_res =    6.60858939570338E-01
(PID.TID 0000.0001)                       cg2d_iters =    25
(PID.TID 0000.0001)                         cg2d_res =    2.85049817945568E-14
(PID.TID 0000.0001) // =======================================================
(PID.TID 0000.0001) // Begin MONITOR dynamic field statistics
(PID.TID 0000.0001) // =======================================================
(PID.TID 0000.0001) %MON time_tsnumber                =                    46
(PID.TID 0000.0001) %MON time_secondsf                =   1.9872000000000E+06
(PID.TID 0000.0001) %MON dynstat_eta_max              =   1.0102916758841E+00
(PID.TID 0000.0001) %MON dynstat_eta_min              =  -1.1578391660963E+00
(PID.TID 0000.0001) %MON dynstat_eta_mean             =   6.0363220775175E-17
(PID.TID 0000.0001) %MON dynstat_eta_sd               =   4.0960225829075E-01
(PID.TID 0000.0001) %MON dynstat_eta_del2             =   1.9276135699813E-02
(PID.TID 0000.0001) %MON dynstat_uvel_max             =   1.4410834217175E-01
(PID.TID 0000.0001) %MON dynstat_uvel_min             =  -2.1713288005213E-01
(PID.TID 0000.0001) %MON dynstat_uvel_mean            =  -2.5405786540827E-03
(PID.TID 0000.0001) %MON dynstat_uvel_sd              =   1.6921666879052E-02
(PID.TID 0000.0001) %MON dynstat_uvel_del2            =   5.5959995318967E-03
(PID.TID 0000.0001) %MON dynstat_vvel_max             =   1.7550481146277E-01
(PID.TID 0000.0001) %MON dynstat_vvel_min             =  -1.5083211034878E-01
(PID.TID 0000.0001) %MON dynstat_vvel_mean            =   2.2395098596507E-03
(PID.TID 0000.0001) %MON dynstat_vvel_sd              =   1.5012316345328E-02
(PID.TID 0000.0001) %MON dynstat_vvel_del2            =   5.1361365771321E-03
(PID.TID 0000.0001) %MON dynstat_wvel_max             =   2.9774759129187E-04
(PID.TID 0000.0001) %MON dynstat_wvel_min             =  -2.3942389676917E-04
(PID.TID 0000.0001) %MON dynstat_wvel_mean            =  -1.7372967455790E-22
(PID.TID 0000.0001) %MON dynstat_wvel_sd              =   2.9809052487962E-05
(PID.TID 0000.0001) %MON dynstat_wvel_del2            =   1.2218095826963E-05
(PID.TID 0000.0001) %MON dynstat_theta_max            =   2.9632693660586E+01
(PID.TID 0000.0001) %MON dynstat_theta_min            =  -1.9410856516553E+00
(PID.TID 0000.0001) %MON dynstat_theta_mean           =   3.5933636034047E+00
(PID.TID 0000.0001) %MON dynstat_theta_sd             =   4.3468527021838E+00
(PID.TID 0000.0001) %MON dynstat_theta_del2           =   1.3282087061919E-01
(PID.TID 0000.0001) %MON dynstat_salt_max             =   3.7384525591173E+01
(PID.TID 0000.0001) %MON dynstat_salt_min             =   2.9805235607334E+01
(PID.TID 0000.0001) %MON dynstat_salt_mean            =   3.4716174483528E+01
(PID.TID 0000.0001) %MON dynstat_salt_sd              =   2.9373164651333E-01
(PID.TID 0000.0001) %MON dynstat_salt_del2            =   2.4687484382336E-02
(PID.TID 0000.0001) %MON advcfl_uvel_max              =   3.0093113631782E-02
(PID.TID 0000.0001) %MON advcfl_vvel_max              =   1.7048885054224E-02
(PID.TID 0000.0001) %MON advcfl_wvel_max              =   1.4103776198004E-01
(PID.TID 0000.0001) %MON advcfl_W_hf_max              =   1.3058798580240E-01
(PID.TID 0000.0001) %MON pe_b_mean                    =   2.1468706806737E-04
(PID.TID 0000.0001) %MON ke_max                       =   1.8837121077185E-02
(PID.TID 0000.0001) %MON ke_mean                      =   2.3645221434013E-04
(PID.TID 0000.0001) %MON ke_vol                       =   1.3226782436723E+18
(PID.TID 0000.0001) %MON vort_r_min                   =  -9.0277058424938E-07
(PID.TID 0000.0001) %MON vort_r_max                   =   6.7228493037970E-07
(PID.TID 0000.0001) %MON vort_a_mean                  =  -2.5205768896861E-05
(PID.TID 0000.0001) %MON vort_a_sd                    =   7.3402902445676E-05
(PID.TID 0000.0001) %MON vort_p_mean                  =  -3.1758668931793E-05
(PID.TID 0000.0001) %MON vort_p_sd                    =   1.3126311598205E-04
(PID.TID 0000.0001) %MON surfExpan_theta_mean         =   1.2574832715243E-05
(PID.TID 0000.0001) %MON surfExpan_salt_mean          =   1.3827390099845E-06
(PID.TID 0000.0001) // =======================================================
(PID.TID 0000.0001) // End MONITOR dynamic field statistics
(PID.TID 0000.0001) // =======================================================
time,SST,SSS,fu,fv,Q,E-P,i0,i1,a,b =   1.9872E+06  5.6102E-01  3.4636E+01 -2.9980E-02 -4.6691E-02  2.5903E+02  0.0000E+00     1     2  2.6667E-01  7.3333E-01
time,fu0,fu1,fu =   1.9872E+06 -3.5633E-02 -1.4435E-02 -2.9980E-02  2.6667E-01  7.3333E-01
 cg2d: Sum(rhs),rhsMax =   1.81049619740747E-13  8.64096094865015E+00
(PID.TID 0000.0001)                    cg2d_init_res =    6.25865011903459E-01
(PID.TID 0000.0001)                       cg2d_iters =    24
(PID.TID 0000.0001)                         cg2d_res =    9.94424331212307E-14
(PID.TID 0000.0001) // =======================================================
(PID.TID 0000.0001) // Begin MONITOR dynamic field statistics
(PID.TID 0000.0001) // =======================================================
(PID.TID 0000.0001) %MON time_tsnumber                =                    47
(PID.TID 0000.0001) %MON time_secondsf                =   2.0304000000000E+06
(PID.TID 0000.0001) %MON dynstat_eta_max              =   1.0510920931475E+00
(PID.TID 0000.0001) %MON dynstat_eta_min              =  -1.1714910243664E+00
(PID.TID 0000.0001) %MON dynstat_eta_mean             =   1.5854180787564E-16
(PID.TID 0000.0001) %MON dynstat_eta_sd               =   4.1070472376036E-01
(PID.TID 0000.0001) %MON dynstat_eta_del2             =   1.9329027258936E-02
(PID.TID 0000.0001) %MON dynstat_uvel_max             =   1.4349283597292E-01
(PID.TID 0000.0001) %MON dynstat_uvel_min             =  -2.0943766964400E-01
(PID.TID 0000.0001) %MON dynstat_uvel_mean            =  -2.4663454416600E-03
(PID.TID 0000.0001) %MON dynstat_uvel_sd              =   1.6852877820230E-02
(PID.TID 0000.0001) %MON dynstat_uvel_del2            =   5.5596521705175E-03
(PID.TID 0000.0001) %MON dynstat_vvel_max             =   1.7553918951083E-01
(PID.TID 0000.0001) %MON dynstat_vvel_min             =  -1.4843494313998E-01
(PID.TID 0000.0001) %MON dynstat_vvel_mean            =   1.9335813794935E-03
(PID.TID 0000.0001) %MON dynstat_vvel_sd              =   1.4878205399326E-02
(PID.TID 0000.0001) %MON dynstat_vvel_del2            =   5.1267110661450E-03
(PID.TID 0000.0001) %MON dynstat_wvel_max             =   3.0151804273672E-04
(PID.TID 0000.0001) %MON dynstat_wvel_min             =  -2.3771513257026E-04
(PID.TID 0000.0001) %MON dynstat_wvel_mean            =  -1.4278357691201E-22
(PID.TID 0000.0001) %MON dynstat_wvel_sd              =   2.9542380759614E-05
(PID.TID 0000.0001) %MON dynstat_wvel_del2            =   1.2135478476388E-05
(PID.TID 0000.0001) %MON dynstat_theta_max            =   2.9643629929310E+01
(PID.TID 0000.0001) %MON dynstat_theta_min            =  -1.9405386874217E+00
(PID.TID 0000.0001) %MON dynstat_theta_mean           =   3.5932741003545E+00
(PID.TID 0000.0001) %MON dynstat_theta_sd             =   4.3464857437123E+00
(PID.TID 0000.0001) %MON dynstat_theta_del2           =   1.3275548831262E-01
(PID.TID 0000.0001) %MON dynstat_salt_max             =   3.7382093444656E+01
(PID.TID 0000.0001) %MON dynstat_salt_min             =   2.9804815737612E+01
(PID.TID 0000.0001) %MON dynstat_salt_mean            =   3.4716163740746E+01
(PID.TID 0000.0001) %MON dynstat_salt_sd              =   2.9369287816760E-01
(PID.TID 0000.0001) %MON dynstat_salt_del2            =   2.4648340023484E-02
(PID.TID 0000.0001) %MON advcfl_uvel_max              =   2.9912116610054E-02
(PID.TID 0000.0001) %MON advcfl_vvel_max              =   1.7052224605914E-02
(PID.TID 0000.0001) %MON advcfl_wvel_max              =   1.3441812387260E-01
(PID.TID 0000.0001) %MON advcfl_W_hf_max              =   1.3454682466137E-01
(PID.TID 0000.0001) %MON pe_b_mean                    =   2.1584430584880E-04
(PID.TID 0000.0001) %MON ke_max                       =   1.8932967980755E-02
(PID.TID 0000.0001) %MON ke_mean                      =   2.3285502642627E-04
(PID.TID 0000.0001) %MON ke_vol                       =   1.3226782436723E+18
(PID.TID 0000.0001) %MON vort_r_min                   =  -9.2315355074494E-07
(PID.TID 0000.0001) %MON vort_r_max                   =   6.6604283744460E-07
(PID.TID 0000.0001) %MON vort_a_mean                  =  -2.5205768858192E-05
(PID.TID 0000.0001) %MON vort_a_sd                    =   7.3402918220486E-05
(PID.TID 0000.0001) %MON vort_p_mean                  =  -3.1758668883070E-05
(PID.TID 0000.0001) %MON vort_p_sd                    =   1.3126315724746E-04
(PID.TID 0000.0001) %MON surfExpan_theta_mean         =   1.2303424755058E-05
(PID.TID 0000.0001) %MON surfExpan_salt_mean          =   1.1122418195562E-06
(PID.TID 0000.0001) // =======================================================
(PID.TID 0000.0001) // End MONITOR dynamic field statistics
(PID.TID 0000.0001) // =======================================================
time,SST,SSS,fu,fv,Q,E-P,i0,i1,a,b =   2.0304E+06  5.3618E-01  3.4631E+01 -2.9627E-02 -4.6031E-02  2.5861E+02  0.0000E+00     1     2  2.8333E-01  7.1667E-01
time,fu0,fu1,fu =   2.0304E+06 -3.5633E-02 -1.4435E-02 -2.9627E-02  2.8333E-01  7.1667E-01
 cg2d: Sum(rhs),rhsMax =   4.28823643261467E-15  8.90282406586782E+00
(PID.TID 0000.0001)                    cg2d_init_res =    5.92306224192805E-01
(PID.TID 0000.0001)                       cg2d_iters =    24
(PID.TID 0000.0001)                         cg2d_res =    8.09487812904797E-14
(PID.TID 0000.0001) // =======================================================
(PID.TID 0000.0001) // Begin MONITOR dynamic field statistics
(PID.TID 0000.0001) // =======================================================
(PID.TID 0000.0001) %MON time_tsnumber                =                    48
(PID.TID 0000.0001) %MON time_secondsf                =   2.0736000000000E+06
(PID.TID 0000.0001) %MON dynstat_eta_max              =   1.0809486883926E+00
(PID.TID 0000.0001) %MON dynstat_eta_min              =  -1.1761446766764E+00
(PID.TID 0000.0001) %MON dynstat_eta_mean             =   1.6104664713287E-16
(PID.TID 0000.0001) %MON dynstat_eta_sd               =   4.1156857996880E-01
(PID.TID 0000.0001) %MON dynstat_eta_del2             =   1.9406444649530E-02
(PID.TID 0000.0001) %MON dynstat_uvel_max             =   1.4243589281253E-01
(PID.TID 0000.0001) %MON dynstat_uvel_min             =  -1.9913989505240E-01
(PID.TID 0000.0001) %MON dynstat_uvel_mean            =  -2.3824284227757E-03
(PID.TID 0000.0001) %MON dynstat_uvel_sd              =   1.6801672604692E-02
(PID.TID 0000.0001) %MON dynstat_uvel_del2            =   5.5242548767221E-03
(PID.TID 0000.0001) %MON dynstat_vvel_max             =   1.7483126264925E-01
(PID.TID 0000.0001) %MON dynstat_vvel_min             =  -1.4739229816651E-01
(PID.TID 0000.0001) %MON dynstat_vvel_mean            =   1.6164918293587E-03
(PID.TID 0000.0001) %MON dynstat_vvel_sd              =   1.4770217468481E-02
(PID.TID 0000.0001) %MON dynstat_vvel_del2            =   5.1170479117188E-03
(PID.TID 0000.0001) %MON dynstat_wvel_max             =   3.0473165418535E-04
(PID.TID 0000.0001) %MON dynstat_wvel_min             =  -2.3865734188873E-04
(PID.TID 0000.0001) %MON dynstat_wvel_mean            =   3.1129346636224E-22
(PID.TID 0000.0001) %MON dynstat_wvel_sd              =   2.9262450971866E-05
(PID.TID 0000.0001) %MON dynstat_wvel_del2            =   1.2050584404955E-05
(PID.TID 0000.0001) %MON dynstat_theta_max            =   2.9654565615877E+01
(PID.TID 0000.0001) %MON dynstat_theta_min            =  -1.9414884310116E+00
(PID.TID 0000.0001) %MON dynstat_theta_mean           =   3.5931894074871E+00
(PID.TID 0000.0001) %MON dynstat_theta_sd             =   4.3460982485485E+00
(PID.TID 0000.0001) %MON dynstat_theta_del2           =   1.3261765989058E-01
(PID.TID 0000.0001) %MON dynstat_salt_max             =   3.7379632325330E+01
(PID.TID 0000.0001) %MON dynstat_salt_min             =   2.9804333463836E+01
(PID.TID 0000.0001) %MON dynstat_salt_mean            =   3.4716156365147E+01
(PID.TID 0000.0001) %MON dynstat_salt_sd              =   2.9366133847211E-01
(PID.TID 0000.0001) %MON dynstat_salt_del2            =   2.4603128146993E-02
(PID.TID 0000.0001) %MON advcfl_uvel_max              =   2.9765810597100E-02
(PID.TID 0000.0001) %MON advcfl_vvel_max              =   1.6983455188202E-02
(PID.TID 0000.0001) %MON advcfl_wvel_max              =   1.3750141026996E-01
(PID.TID 0000.0001) %MON advcfl_W_hf_max              =   1.3667427325033E-01
(PID.TID 0000.0001) %MON pe_b_mean                    =   2.1675325345347E-04
(PID.TID 0000.0001) %MON ke_max                       =   1.9005995042960E-02
(PID.TID 0000.0001) %MON ke_mean                      =   2.2994450903498E-04
(PID.TID 0000.0001) %MON ke_vol                       =   1.3226782436723E+18
(PID.TID 0000.0001) %MON vort_r_min                   =  -9.4276352603294E-07
(PID.TID 0000.0001) %MON vort_r_max                   =   6.5669473381591E-07
(PID.TID 0000.0001) %MON vort_a_mean                  =  -2.5205768822151E-05
(PID.TID 0000.0001) %MON vort_a_sd                    =   7.3402935093278E-05
(PID.TID 0000.0001) %MON vort_p_mean                  =  -3.1758668837660E-05
(PID.TID 0000.0001) %MON vort_p_sd                    =   1.3126319498726E-04
(PID.TID 0000.0001) %MON surfExpan_theta_mean         =   1.1938476528822E-05
(PID.TID 0000.0001) %MON surfExpan_salt_mean          =   8.2460193258028E-07
(PID.TID 0000.0001) // =======================================================
(PID.TID 0000.0001) // End MONITOR dynamic field statistics
(PID.TID 0000.0001) // =======================================================
time,SST,SSS,fu,fv,Q,E-P,i0,i1,a,b =   2.0736E+06  5.1134E-01  3.4627E+01 -2.9273E-02 -4.5370E-02  2.5818E+02  0.0000E+00     1     2  3.0000E-01  7.0000E-01
time,fu0,fu1,fu =   2.0736E+06 -3.5633E-02 -1.4435E-02 -2.9273E-02  3.0000E-01  7.0000E-01
 cg2d: Sum(rhs),rhsMax =   3.88467036316342E-13  8.99099016877957E+00
(PID.TID 0000.0001)                    cg2d_init_res =    5.70825621762599E-01
(PID.TID 0000.0001)                       cg2d_iters =    24
(PID.TID 0000.0001)                         cg2d_res =    8.02879853946225E-14
(PID.TID 0000.0001) // =======================================================
(PID.TID 0000.0001) // Begin MONITOR dynamic field statistics
(PID.TID 0000.0001) // =======================================================
(PID.TID 0000.0001) %MON time_tsnumber                =                    49
(PID.TID 0000.0001) %MON time_secondsf                =   2.1168000000000E+06
(PID.TID 0000.0001) %MON dynstat_eta_max              =   1.0898131534312E+00
(PID.TID 0000.0001) %MON dynstat_eta_min              =  -1.1725935860853E+00
(PID.TID 0000.0001) %MON dynstat_eta_mean             =   7.3156250077188E-17
(PID.TID 0000.0001) %MON dynstat_eta_sd               =   4.1220728454835E-01
(PID.TID 0000.0001) %MON dynstat_eta_del2             =   1.9438805981310E-02
(PID.TID 0000.0001) %MON dynstat_uvel_max             =   1.4134065977161E-01
(PID.TID 0000.0001) %MON dynstat_uvel_min             =  -1.9929452537527E-01
(PID.TID 0000.0001) %MON dynstat_uvel_mean            =  -2.2881405758409E-03
(PID.TID 0000.0001) %MON dynstat_uvel_sd              =   1.6766412507197E-02
(PID.TID 0000.0001) %MON dynstat_uvel_del2            =   5.4896024018522E-03
(PID.TID 0000.0001) %MON dynstat_vvel_max             =   1.7342956481528E-01
(PID.TID 0000.0001) %MON dynstat_vvel_min             =  -1.4584798953374E-01
(PID.TID 0000.0001) %MON dynstat_vvel_mean            =   1.2927115284732E-03
(PID.TID 0000.0001) %MON dynstat_vvel_sd              =   1.4692858013029E-02
(PID.TID 0000.0001) %MON dynstat_vvel_del2            =   5.1036015433670E-03
(PID.TID 0000.0001) %MON dynstat_wvel_max             =   3.0740730803275E-04
(PID.TID 0000.0001) %MON dynstat_wvel_min             =  -2.3854990345699E-04
(PID.TID 0000.0001) %MON dynstat_wvel_mean            =  -2.4338627023821E-22
(PID.TID 0000.0001) %MON dynstat_wvel_sd              =   2.8979464277878E-05
(PID.TID 0000.0001) %MON dynstat_wvel_del2            =   1.1961391844344E-05
(PID.TID 0000.0001) %MON dynstat_theta_max            =   2.9664417201557E+01
(PID.TID 0000.0001) %MON dynstat_theta_min            =  -1.9438856076458E+00
(PID.TID 0000.0001) %MON dynstat_theta_mean           =   3.5931098247742E+00
(PID.TID 0000.0001) %MON dynstat_theta_sd             =   4.3457011157635E+00
(PID.TID 0000.0001) %MON dynstat_theta_del2           =   1.3249696129779E-01
(PID.TID 0000.0001) %MON dynstat_salt_max             =   3.7380739298253E+01
(PID.TID 0000.0001) %MON dynstat_salt_min             =   2.9803795676130E+01
(PID.TID 0000.0001) %MON dynstat_salt_mean            =   3.4716152283662E+01
(PID.TID 0000.0001) %MON dynstat_salt_sd              =   2.9363748505377E-01
(PID.TID 0000.0001) %MON dynstat_salt_del2            =   2.4555514765194E-02
(PID.TID 0000.0001) %MON advcfl_uvel_max              =   2.9665400124130E-02
(PID.TID 0000.0001) %MON advcfl_vvel_max              =   1.6847291483898E-02
(PID.TID 0000.0001) %MON advcfl_wvel_max              =   1.3867242708167E-01
(PID.TID 0000.0001) %MON advcfl_W_hf_max              =   1.3689137846278E-01
(PID.TID 0000.0001) %MON pe_b_mean                    =   2.1742652505104E-04
(PID.TID 0000.0001) %MON ke_max                       =   1.9056467194119E-02
(PID.TID 0000.0001) %MON ke_mean                      =   2.2776057145455E-04
(PID.TID 0000.0001) %MON ke_vol                       =   1.3226782436723E+18
(PID.TID 0000.0001) %MON vort_r_min                   =  -9.6151736307646E-07
(PID.TID 0000.0001) %MON vort_r_max                   =   6.4410938112384E-07
(PID.TID 0000.0001) %MON vort_a_mean                  =  -2.5205768788933E-05
(PID.TID 0000.0001) %MON vort_a_sd                    =   7.3402953345716E-05
(PID.TID 0000.0001) %MON vort_p_mean                  =  -3.1758668795806E-05
(PID.TID 0000.0001) %MON vort_p_sd                    =   1.3126322893319E-04
(PID.TID 0000.0001) %MON surfExpan_theta_mean         =   1.1520167109503E-05
(PID.TID 0000.0001) %MON surfExpan_salt_mean          =   5.3401279714951E-07
(PID.TID 0000.0001) // =======================================================
(PID.TID 0000.0001) // End MONITOR dynamic field statistics
(PID.TID 0000.0001) // =======================================================
time,SST,SSS,fu,fv,Q,E-P,i0,i1,a,b =   2.1168E+06  4.8650E-01  3.4622E+01 -2.8920E-02 -4.4710E-02  2.5776E+02  0.0000E+00     1     2  3.1667E-01  6.8333E-01
time,fu0,fu1,fu =   2.1168E+06 -3.5633E-02 -1.4435E-02 -2.8920E-02  3.1667E-01  6.8333E-01
 cg2d: Sum(rhs),rhsMax =  -2.00603422761958E-13  8.89940298102282E+00
(PID.TID 0000.0001)                    cg2d_init_res =    5.61903473052152E-01
(PID.TID 0000.0001)                       cg2d_iters =    24
(PID.TID 0000.0001)                         cg2d_res =    7.77826524331499E-14
(PID.TID 0000.0001) // =======================================================
(PID.TID 0000.0001) // Begin MONITOR dynamic field statistics
(PID.TID 0000.0001) // =======================================================
(PID.TID 0000.0001) %MON time_tsnumber                =                    50
(PID.TID 0000.0001) %MON time_secondsf                =   2.1600000000000E+06
(PID.TID 0000.0001) %MON dynstat_eta_max              =   1.0770007300471E+00
(PID.TID 0000.0001) %MON dynstat_eta_min              =  -1.1620165632818E+00
(PID.TID 0000.0001) %MON dynstat_eta_mean             =  -1.0076961142563E-17
(PID.TID 0000.0001) %MON dynstat_eta_sd               =   4.1264389161417E-01
(PID.TID 0000.0001) %MON dynstat_eta_del2             =   1.9452222250424E-02
(PID.TID 0000.0001) %MON dynstat_uvel_max             =   1.4042026471047E-01
(PID.TID 0000.0001) %MON dynstat_uvel_min             =  -1.9972327303835E-01
(PID.TID 0000.0001) %MON dynstat_uvel_mean            =  -2.1834095468185E-03
(PID.TID 0000.0001) %MON dynstat_uvel_sd              =   1.6746396738808E-02
(PID.TID 0000.0001) %MON dynstat_uvel_del2            =   5.4566295800530E-03
(PID.TID 0000.0001) %MON dynstat_vvel_max             =   1.7139647785859E-01
(PID.TID 0000.0001) %MON dynstat_vvel_min             =  -1.4380563974902E-01
(PID.TID 0000.0001) %MON dynstat_vvel_mean            =   9.6659393699026E-04
(PID.TID 0000.0001) %MON dynstat_vvel_sd              =   1.4648533746615E-02
(PID.TID 0000.0001) %MON dynstat_vvel_del2            =   5.0892574217765E-03
(PID.TID 0000.0001) %MON dynstat_wvel_max             =   3.0956277473096E-04
(PID.TID 0000.0001) %MON dynstat_wvel_min             =  -2.3696325391586E-04
(PID.TID 0000.0001) %MON dynstat_wvel_mean            =   6.5567175843335E-22
(PID.TID 0000.0001) %MON dynstat_wvel_sd              =   2.8703440646503E-05
(PID.TID 0000.0001) %MON dynstat_wvel_del2            =   1.1867239905316E-05
(PID.TID 0000.0001) %MON dynstat_theta_max            =   2.9672787439104E+01
(PID.TID 0000.0001) %MON dynstat_theta_min            =  -1.9460975040482E+00
(PID.TID 0000.0001) %MON dynstat_theta_mean           =   3.5930352468805E+00
(PID.TID 0000.0001) %MON dynstat_theta_sd             =   4.3453037968478E+00
(PID.TID 0000.0001) %MON dynstat_theta_del2           =   1.3236644597038E-01
(PID.TID 0000.0001) %MON dynstat_salt_max             =   3.7381877501161E+01
(PID.TID 0000.0001) %MON dynstat_salt_min             =   2.9803208279501E+01
(PID.TID 0000.0001) %MON dynstat_salt_mean            =   3.4716151280873E+01
(PID.TID 0000.0001) %MON dynstat_salt_sd              =   2.9362141168505E-01
(PID.TID 0000.0001) %MON dynstat_salt_del2            =   2.4507570051578E-02
(PID.TID 0000.0001) %MON advcfl_uvel_max              =   3.0094636532922E-02
(PID.TID 0000.0001) %MON advcfl_vvel_max              =   1.6649793389452E-02
(PID.TID 0000.0001) %MON advcfl_wvel_max              =   1.4169799114495E-01
(PID.TID 0000.0001) %MON advcfl_W_hf_max              =   1.3512913471483E-01
(PID.TID 0000.0001) %MON pe_b_mean                    =   2.1788736228156E-04
(PID.TID 0000.0001) %MON ke_max                       =   1.9084532133949E-02
(PID.TID 0000.0001) %MON ke_mean                      =   2.2632841454091E-04
(PID.TID 0000.0001) %MON ke_vol                       =   1.3226782436723E+18
(PID.TID 0000.0001) %MON vort_r_min                   =  -9.7933931773398E-07
(PID.TID 0000.0001) %MON vort_r_max                   =   6.2823765817739E-07
(PID.TID 0000.0001) %MON vort_a_mean                  =  -2.5205768758518E-05
(PID.TID 0000.0001) %MON vort_a_sd                    =   7.3402973135454E-05
(PID.TID 0000.0001) %MON vort_p_mean                  =  -3.1758668757484E-05
(PID.TID 0000.0001) %MON vort_p_sd                    =   1.3126325882733E-04
(PID.TID 0000.0001) %MON surfExpan_theta_mean         =   1.1086220112776E-05
(PID.TID 0000.0001) %MON surfExpan_salt_mean          =   2.5426765249264E-07
(PID.TID 0000.0001) // =======================================================
(PID.TID 0000.0001) // End MONITOR dynamic field statistics
(PID.TID 0000.0001) // =======================================================
time,SST,SSS,fu,fv,Q,E-P,i0,i1,a,b =   2.1600E+06  4.6166E-01  3.4617E+01 -2.8567E-02 -4.4050E-02  2.5734E+02  0.0000E+00     1     2  3.3333E-01  6.6667E-01
time,fu0,fu1,fu =   2.1600E+06 -3.5633E-02 -1.4435E-02 -2.8567E-02  3.3333E-01  6.6667E-01
 cg2d: Sum(rhs),rhsMax =   3.85913523359704E-13  8.62674625717915E+00
(PID.TID 0000.0001)                    cg2d_init_res =    5.66984032886830E-01
(PID.TID 0000.0001)                       cg2d_iters =    24
(PID.TID 0000.0001)                         cg2d_res =    6.33969912549397E-14
(PID.TID 0000.0001) // =======================================================
(PID.TID 0000.0001) // Begin MONITOR dynamic field statistics
(PID.TID 0000.0001) // =======================================================
(PID.TID 0000.0001) %MON time_tsnumber                =                    51
(PID.TID 0000.0001) %MON time_secondsf                =   2.2032000000000E+06
(PID.TID 0000.0001) %MON dynstat_eta_max              =   1.0424026068132E+00
(PID.TID 0000.0001) %MON dynstat_eta_min              =  -1.1458618843987E+00
(PID.TID 0000.0001) %MON dynstat_eta_mean             =   4.7635596359766E-17
(PID.TID 0000.0001) %MON dynstat_eta_sd               =   4.1291307047171E-01
(PID.TID 0000.0001) %MON dynstat_eta_del2             =   1.9387610380099E-02
(PID.TID 0000.0001) %MON dynstat_uvel_max             =   1.3765684904331E-01
(PID.TID 0000.0001) %MON dynstat_uvel_min             =  -1.9989897748114E-01
(PID.TID 0000.0001) %MON dynstat_uvel_mean            =  -2.0686936191329E-03
(PID.TID 0000.0001) %MON dynstat_uvel_sd              =   1.6741849157894E-02
(PID.TID 0000.0001) %MON dynstat_uvel_del2            =   5.4264222349093E-03
(PID.TID 0000.0001) %MON dynstat_vvel_max             =   1.6880503666805E-01
(PID.TID 0000.0001) %MON dynstat_vvel_min             =  -1.4138741507884E-01
(PID.TID 0000.0001) %MON dynstat_vvel_mean            =   6.4230357554890E-04
(PID.TID 0000.0001) %MON dynstat_vvel_sd              =   1.4637104643281E-02
(PID.TID 0000.0001) %MON dynstat_vvel_del2            =   5.0719152248688E-03
(PID.TID 0000.0001) %MON dynstat_wvel_max             =   3.1121533515388E-04
(PID.TID 0000.0001) %MON dynstat_wvel_min             =  -2.3393518953875E-04
(PID.TID 0000.0001) %MON dynstat_wvel_mean            =   4.1825257684180E-23
(PID.TID 0000.0001) %MON dynstat_wvel_sd              =   2.8442609159462E-05
(PID.TID 0000.0001) %MON dynstat_wvel_del2            =   1.1765906721245E-05
(PID.TID 0000.0001) %MON dynstat_theta_max            =   2.9679741854741E+01
(PID.TID 0000.0001) %MON dynstat_theta_min            =  -1.9481357225733E+00
(PID.TID 0000.0001) %MON dynstat_theta_mean           =   3.5929652181538E+00
(PID.TID 0000.0001) %MON dynstat_theta_sd             =   4.3449140622026E+00
(PID.TID 0000.0001) %MON dynstat_theta_del2           =   1.3223633298959E-01
(PID.TID 0000.0001) %MON dynstat_salt_max             =   3.7382968851817E+01
(PID.TID 0000.0001) %MON dynstat_salt_min             =   2.9802575832807E+01
(PID.TID 0000.0001) %MON dynstat_salt_mean            =   3.4716153007725E+01
(PID.TID 0000.0001) %MON dynstat_salt_sd              =   2.9361320262234E-01
(PID.TID 0000.0001) %MON dynstat_salt_del2            =   2.4457711058998E-02
(PID.TID 0000.0001) %MON advcfl_uvel_max              =   3.0493082390335E-02
(PID.TID 0000.0001) %MON advcfl_vvel_max              =   1.6398055658651E-02
(PID.TID 0000.0001) %MON advcfl_wvel_max              =   1.6220526682656E-01
(PID.TID 0000.0001) %MON advcfl_W_hf_max              =   1.3133199917536E-01
(PID.TID 0000.0001) %MON pe_b_mean                    =   2.1817172272969E-04
(PID.TID 0000.0001) %MON ke_max                       =   1.9090293340304E-02
(PID.TID 0000.0001) %MON ke_mean                      =   2.2565311723638E-04
(PID.TID 0000.0001) %MON ke_vol                       =   1.3226782436723E+18
(PID.TID 0000.0001) %MON vort_r_min                   =  -9.9616247593603E-07
(PID.TID 0000.0001) %MON vort_r_max                   =   6.3509427066216E-07
(PID.TID 0000.0001) %MON vort_a_mean                  =  -2.5205768730553E-05
(PID.TID 0000.0001) %MON vort_a_sd                    =   7.3402994507594E-05
(PID.TID 0000.0001) %MON vort_p_mean                  =  -3.1758668722249E-05
(PID.TID 0000.0001) %MON vort_p_sd                    =   1.3126328429477E-04
(PID.TID 0000.0001) %MON surfExpan_theta_mean         =   1.0670953396901E-05
(PID.TID 0000.0001) %MON surfExpan_salt_mean          =  -1.9666129024343E-09
(PID.TID 0000.0001) // =======================================================
(PID.TID 0000.0001) // End MONITOR dynamic field statistics
(PID.TID 0000.0001) // =======================================================
time,SST,SSS,fu,fv,Q,E-P,i0,i1,a,b =   2.2032E+06  4.3683E-01  3.4612E+01 -2.8214E-02 -4.3389E-02  2.5692E+02  0.0000E+00     1     2  3.5000E-01  6.5000E-01
time,fu0,fu1,fu =   2.2032E+06 -3.5633E-02 -1.4435E-02 -2.8214E-02  3.5000E-01  6.5000E-01
 cg2d: Sum(rhs),rhsMax =  -5.08204589522165E-14  8.17661275014350E+00
(PID.TID 0000.0001)                    cg2d_init_res =    5.88477129975963E-01
(PID.TID 0000.0001)                       cg2d_iters =    24
(PID.TID 0000.0001)                         cg2d_res =    8.73179960575751E-14
(PID.TID 0000.0001) // =======================================================
(PID.TID 0000.0001) // Begin MONITOR dynamic field statistics
(PID.TID 0000.0001) // =======================================================
(PID.TID 0000.0001) %MON time_tsnumber                =                    52
(PID.TID 0000.0001) %MON time_secondsf                =   2.2464000000000E+06
(PID.TID 0000.0001) %MON dynstat_eta_max              =   9.8650484001036E-01
(PID.TID 0000.0001) %MON dynstat_eta_min              =  -1.1257342654661E+00
(PID.TID 0000.0001) %MON dynstat_eta_mean             =  -1.0175730398113E-16
(PID.TID 0000.0001) %MON dynstat_eta_sd               =   4.1306137076270E-01
(PID.TID 0000.0001) %MON dynstat_eta_del2             =   1.9329296226599E-02
(PID.TID 0000.0001) %MON dynstat_uvel_max             =   1.3501294445180E-01
(PID.TID 0000.0001) %MON dynstat_uvel_min             =  -1.9982317592202E-01
(PID.TID 0000.0001) %MON dynstat_uvel_mean            =  -1.9448915826552E-03
(PID.TID 0000.0001) %MON dynstat_uvel_sd              =   1.6753785024910E-02
(PID.TID 0000.0001) %MON dynstat_uvel_del2            =   5.3967461031042E-03
(PID.TID 0000.0001) %MON dynstat_vvel_max             =   1.6573544604729E-01
(PID.TID 0000.0001) %MON dynstat_vvel_min             =  -1.4224882637110E-01
(PID.TID 0000.0001) %MON dynstat_vvel_mean            =   3.2376150612014E-04
(PID.TID 0000.0001) %MON dynstat_vvel_sd              =   1.4655784744480E-02
(PID.TID 0000.0001) %MON dynstat_vvel_del2            =   5.0530409851856E-03
(PID.TID 0000.0001) %MON dynstat_wvel_max             =   3.1238530422068E-04
(PID.TID 0000.0001) %MON dynstat_wvel_min             =  -2.3573098853717E-04
(PID.TID 0000.0001) %MON dynstat_wvel_mean            =  -9.7178792002568E-23
(PID.TID 0000.0001) %MON dynstat_wvel_sd              =   2.8202206960165E-05
(PID.TID 0000.0001) %MON dynstat_wvel_del2            =   1.1661240671765E-05
(PID.TID 0000.0001) %MON dynstat_theta_max            =   2.9685365586343E+01
(PID.TID 0000.0001) %MON dynstat_theta_min            =  -1.9500114487975E+00
(PID.TID 0000.0001) %MON dynstat_theta_mean           =   3.5928990279187E+00
(PID.TID 0000.0001) %MON dynstat_theta_sd             =   4.3445381132447E+00
(PID.TID 0000.0001) %MON dynstat_theta_del2           =   1.3209891812379E-01
(PID.TID 0000.0001) %MON dynstat_salt_max             =   3.7383994638579E+01
(PID.TID 0000.0001) %MON dynstat_salt_min             =   2.9801901309423E+01
(PID.TID 0000.0001) %MON dynstat_salt_mean            =   3.4716157004249E+01
(PID.TID 0000.0001) %MON dynstat_salt_sd              =   2.9361243219808E-01
(PID.TID 0000.0001) %MON dynstat_salt_del2            =   2.4406813114496E-02
(PID.TID 0000.0001) %MON advcfl_uvel_max              =   3.1106240800834E-02
(PID.TID 0000.0001) %MON advcfl_vvel_max              =   1.6099869545002E-02
(PID.TID 0000.0001) %MON advcfl_wvel_max              =   1.7753661328383E-01
(PID.TID 0000.0001) %MON advcfl_W_hf_max              =   1.2615938045923E-01
(PID.TID 0000.0001) %MON pe_b_mean                    =   2.1832846632788E-04
(PID.TID 0000.0001) %MON ke_max                       =   1.9192043276304E-02
(PID.TID 0000.0001) %MON ke_mean                      =   2.2571651240000E-04
(PID.TID 0000.0001) %MON ke_vol                       =   1.3226782436723E+18
(PID.TID 0000.0001) %MON vort_r_min                   =  -1.0119289670083E-06
(PID.TID 0000.0001) %MON vort_r_max                   =   6.4789940725653E-07
(PID.TID 0000.0001) %MON vort_a_mean                  =  -2.5205768704875E-05
(PID.TID 0000.0001) %MON vort_a_sd                    =   7.3403017402669E-05
(PID.TID 0000.0001) %MON vort_p_mean                  =  -3.1758668689895E-05
(PID.TID 0000.0001) %MON vort_p_sd                    =   1.3126330489340E-04
(PID.TID 0000.0001) %MON surfExpan_theta_mean         =   1.0299417798565E-05
(PID.TID 0000.0001) %MON surfExpan_salt_mean          =  -2.2428895123473E-07
(PID.TID 0000.0001) // =======================================================
(PID.TID 0000.0001) // End MONITOR dynamic field statistics
(PID.TID 0000.0001) // =======================================================
time,SST,SSS,fu,fv,Q,E-P,i0,i1,a,b =   2.2464E+06  4.1199E-01  3.4607E+01 -2.7860E-02 -4.2729E-02  2.5650E+02  0.0000E+00     1     2  3.6667E-01  6.3333E-01
time,fu0,fu1,fu =   2.2464E+06 -3.5633E-02 -1.4435E-02 -2.7860E-02  3.6667E-01  6.3333E-01
 cg2d: Sum(rhs),rhsMax =  -2.58112975437541E-13  7.98902779509074E+00
(PID.TID 0000.0001)                    cg2d_init_res =    5.96107259972714E-01
(PID.TID 0000.0001)                       cg2d_iters =    24
(PID.TID 0000.0001)                         cg2d_res =    9.73022268886487E-14
(PID.TID 0000.0001) // =======================================================
(PID.TID 0000.0001) // Begin MONITOR dynamic field statistics
(PID.TID 0000.0001) // =======================================================
(PID.TID 0000.0001) %MON time_tsnumber                =                    53
(PID.TID 0000.0001) %MON time_secondsf                =   2.2896000000000E+06
(PID.TID 0000.0001) %MON dynstat_eta_max              =   9.1039405313658E-01
(PID.TID 0000.0001) %MON dynstat_eta_min              =  -1.1240028840133E+00
(PID.TID 0000.0001) %MON dynstat_eta_mean             =  -3.1411805759098E-17
(PID.TID 0000.0001) %MON dynstat_eta_sd               =   4.1314529271933E-01
(PID.TID 0000.0001) %MON dynstat_eta_del2             =   1.9265475064253E-02
(PID.TID 0000.0001) %MON dynstat_uvel_max             =   1.3775403227880E-01
(PID.TID 0000.0001) %MON dynstat_uvel_min             =  -1.9949852382801E-01
(PID.TID 0000.0001) %MON dynstat_uvel_mean            =  -1.8132460070436E-03
(PID.TID 0000.0001) %MON dynstat_uvel_sd              =   1.6783783840182E-02
(PID.TID 0000.0001) %MON dynstat_uvel_del2            =   5.3676692749518E-03
(PID.TID 0000.0001) %MON dynstat_vvel_max             =   1.6227133090878E-01
(PID.TID 0000.0001) %MON dynstat_vvel_min             =  -1.4264535333459E-01
(PID.TID 0000.0001) %MON dynstat_vvel_mean            =   1.4602043669218E-05
(PID.TID 0000.0001) %MON dynstat_vvel_sd              =   1.4699429263543E-02
(PID.TID 0000.0001) %MON dynstat_vvel_del2            =   5.0301984300004E-03
(PID.TID 0000.0001) %MON dynstat_wvel_max             =   3.1309788491502E-04
(PID.TID 0000.0001) %MON dynstat_wvel_min             =  -2.3794151389923E-04
(PID.TID 0000.0001) %MON dynstat_wvel_mean            =  -1.1580848163889E-22
(PID.TID 0000.0001) %MON dynstat_wvel_sd              =   2.7983795602007E-05
(PID.TID 0000.0001) %MON dynstat_wvel_del2            =   1.1550988995668E-05
(PID.TID 0000.0001) %MON dynstat_theta_max            =   2.9689754147912E+01
(PID.TID 0000.0001) %MON dynstat_theta_min            =  -1.9517345922522E+00
(PID.TID 0000.0001) %MON dynstat_theta_mean           =   3.5928357546131E+00
(PID.TID 0000.0001) %MON dynstat_theta_sd             =   4.3441813030571E+00
(PID.TID 0000.0001) %MON dynstat_theta_del2           =   1.3198604629994E-01
(PID.TID 0000.0001) %MON dynstat_salt_max             =   3.7384941062015E+01
(PID.TID 0000.0001) %MON dynstat_salt_min             =   2.9801185972402E+01
(PID.TID 0000.0001) %MON dynstat_salt_mean            =   3.4716162734416E+01
(PID.TID 0000.0001) %MON dynstat_salt_sd              =   2.9361900132243E-01
(PID.TID 0000.0001) %MON dynstat_salt_del2            =   2.4355504771587E-02
(PID.TID 0000.0001) %MON advcfl_uvel_max              =   3.1688764822521E-02
(PID.TID 0000.0001) %MON advcfl_vvel_max              =   1.5763358538159E-02
(PID.TID 0000.0001) %MON advcfl_wvel_max              =   1.8745278781301E-01
(PID.TID 0000.0001) %MON advcfl_W_hf_max              =   1.3274388883236E-01
(PID.TID 0000.0001) %MON pe_b_mean                    =   2.1841719122293E-04
(PID.TID 0000.0001) %MON ke_max                       =   1.9439185439655E-02
(PID.TID 0000.0001) %MON ke_mean                      =   2.2647704523384E-04
(PID.TID 0000.0001) %MON ke_vol                       =   1.3226782436723E+18
(PID.TID 0000.0001) %MON vort_r_min                   =  -1.0265907730086E-06
(PID.TID 0000.0001) %MON vort_r_max                   =   6.5962296296700E-07
(PID.TID 0000.0001) %MON vort_a_mean                  =  -2.5205768680825E-05
(PID.TID 0000.0001) %MON vort_a_sd                    =   7.3403041680028E-05
(PID.TID 0000.0001) %MON vort_p_mean                  =  -3.1758668659593E-05
(PID.TID 0000.0001) %MON vort_p_sd                    =   1.3126332018594E-04
(PID.TID 0000.0001) %MON surfExpan_theta_mean         =   9.9981816369581E-06
(PID.TID 0000.0001) %MON surfExpan_salt_mean          =  -4.0364594367448E-07
(PID.TID 0000.0001) // =======================================================
(PID.TID 0000.0001) // End MONITOR dynamic field statistics
(PID.TID 0000.0001) // =======================================================
time,SST,SSS,fu,fv,Q,E-P,i0,i1,a,b =   2.2896E+06  3.8715E-01  3.4602E+01 -2.7507E-02 -4.2069E-02  2.5608E+02  0.0000E+00     1     2  3.8333E-01  6.1667E-01
time,fu0,fu1,fu =   2.2896E+06 -3.5633E-02 -1.4435E-02 -2.7507E-02  3.8333E-01  6.1667E-01
 cg2d: Sum(rhs),rhsMax =   2.91502932903143E-13  8.10539979254896E+00
(PID.TID 0000.0001)                    cg2d_init_res =    5.84267437828909E-01
(PID.TID 0000.0001)                       cg2d_iters =    25
(PID.TID 0000.0001)                         cg2d_res =    2.50075452202038E-14
(PID.TID 0000.0001) // =======================================================
(PID.TID 0000.0001) // Begin MONITOR dynamic field statistics
(PID.TID 0000.0001) // =======================================================
(PID.TID 0000.0001) %MON time_tsnumber                =                    54
(PID.TID 0000.0001) %MON time_secondsf                =   2.3328000000000E+06
(PID.TID 0000.0001) %MON dynstat_eta_max              =   9.1594062243617E-01
(PID.TID 0000.0001) %MON dynstat_eta_min              =  -1.1671530410921E+00
(PID.TID 0000.0001) %MON dynstat_eta_mean             =  -1.4878016655191E-16
(PID.TID 0000.0001) %MON dynstat_eta_sd               =   4.1322720246647E-01
(PID.TID 0000.0001) %MON dynstat_eta_del2             =   1.9188981015378E-02
(PID.TID 0000.0001) %MON dynstat_uvel_max             =   1.4216080613619E-01
(PID.TID 0000.0001) %MON dynstat_uvel_min             =  -1.9892897914513E-01
(PID.TID 0000.0001) %MON dynstat_uvel_mean            =  -1.6752479727953E-03
(PID.TID 0000.0001) %MON dynstat_uvel_sd              =   1.6833691139599E-02
(PID.TID 0000.0001) %MON dynstat_uvel_del2            =   5.3412051524665E-03
(PID.TID 0000.0001) %MON dynstat_vvel_max             =   1.6239621777490E-01
(PID.TID 0000.0001) %MON dynstat_vvel_min             =  -1.4258600082066E-01
(PID.TID 0000.0001) %MON dynstat_vvel_mean            =  -2.8186336946256E-04
(PID.TID 0000.0001) %MON dynstat_vvel_sd              =   1.4761167006576E-02
(PID.TID 0000.0001) %MON dynstat_vvel_del2            =   5.0025538529369E-03
(PID.TID 0000.0001) %MON dynstat_wvel_max             =   3.1338444808342E-04
(PID.TID 0000.0001) %MON dynstat_wvel_min             =  -2.3965876983241E-04
(PID.TID 0000.0001) %MON dynstat_wvel_mean            =   1.3065167523067E-22
(PID.TID 0000.0001) %MON dynstat_wvel_sd              =   2.7785304230135E-05
(PID.TID 0000.0001) %MON dynstat_wvel_del2            =   1.1432365231211E-05
(PID.TID 0000.0001) %MON dynstat_theta_max            =   2.9693007152552E+01
(PID.TID 0000.0001) %MON dynstat_theta_min            =  -1.9533129747369E+00
(PID.TID 0000.0001) %MON dynstat_theta_mean           =   3.5927743065381E+00
(PID.TID 0000.0001) %MON dynstat_theta_sd             =   4.3438459583401E+00
(PID.TID 0000.0001) %MON dynstat_theta_del2           =   1.3186313145139E-01
(PID.TID 0000.0001) %MON dynstat_salt_max             =   3.7385799318209E+01
(PID.TID 0000.0001) %MON dynstat_salt_min             =   2.9800429325401E+01
(PID.TID 0000.0001) %MON dynstat_salt_mean            =   3.4716169606144E+01
(PID.TID 0000.0001) %MON dynstat_salt_sd              =   2.9363224065951E-01
(PID.TID 0000.0001) %MON dynstat_salt_del2            =   2.4307250817974E-02
(PID.TID 0000.0001) %MON advcfl_uvel_max              =   3.2231077859993E-02
(PID.TID 0000.0001) %MON advcfl_vvel_max              =   1.5775490295730E-02
(PID.TID 0000.0001) %MON advcfl_wvel_max              =   1.9190206092302E-01
(PID.TID 0000.0001) %MON advcfl_W_hf_max              =   1.4178519952545E-01
(PID.TID 0000.0001) %MON pe_b_mean                    =   2.1850380612909E-04
(PID.TID 0000.0001) %MON ke_max                       =   1.9647923712019E-02
(PID.TID 0000.0001) %MON ke_mean                      =   2.2787269043690E-04
(PID.TID 0000.0001) %MON ke_vol                       =   1.3226782436723E+18
(PID.TID 0000.0001) %MON vort_r_min                   =  -1.0401092439607E-06
(PID.TID 0000.0001) %MON vort_r_max                   =   6.7020947420156E-07
(PID.TID 0000.0001) %MON vort_a_mean                  =  -2.5205768657829E-05
(PID.TID 0000.0001) %MON vort_a_sd                    =   7.3403067129214E-05
(PID.TID 0000.0001) %MON vort_p_mean                  =  -3.1758668630618E-05
(PID.TID 0000.0001) %MON vort_p_sd                    =   1.3126332977065E-04
(PID.TID 0000.0001) %MON surfExpan_theta_mean         =   9.7819340092005E-06
(PID.TID 0000.0001) %MON surfExpan_salt_mean          =  -5.3450702541588E-07
(PID.TID 0000.0001) // =======================================================
(PID.TID 0000.0001) // End MONITOR dynamic field statistics
(PID.TID 0000.0001) // =======================================================
time,SST,SSS,fu,fv,Q,E-P,i0,i1,a,b =   2.3328E+06  3.6231E-01  3.4597E+01 -2.7154E-02 -4.1408E-02  2.5565E+02  0.0000E+00     1     2  4.0000E-01  6.0000E-01
time,fu0,fu1,fu =   2.3328E+06 -3.5633E-02 -1.4435E-02 -2.7154E-02  4.0000E-01  6.0000E-01
 cg2d: Sum(rhs),rhsMax =  -3.00356961524528E-13  8.20893301536877E+00
(PID.TID 0000.0001)                    cg2d_init_res =    5.74919387348592E-01
(PID.TID 0000.0001)                       cg2d_iters =    25
(PID.TID 0000.0001)                         cg2d_res =    2.53334395966005E-14
(PID.TID 0000.0001) // =======================================================
(PID.TID 0000.0001) // Begin MONITOR dynamic field statistics
(PID.TID 0000.0001) // =======================================================
(PID.TID 0000.0001) %MON time_tsnumber                =                    55
(PID.TID 0000.0001) %MON time_secondsf                =   2.3760000000000E+06
(PID.TID 0000.0001) %MON dynstat_eta_max              =   9.2848443218345E-01
(PID.TID 0000.0001) %MON dynstat_eta_min              =  -1.2045150168702E+00
(PID.TID 0000.0001) %MON dynstat_eta_mean             =  -3.3583183736451E-16
(PID.TID 0000.0001) %MON dynstat_eta_sd               =   4.1336960706682E-01
(PID.TID 0000.0001) %MON dynstat_eta_del2             =   1.9091583166358E-02
(PID.TID 0000.0001) %MON dynstat_uvel_max             =   1.5077056032695E-01
(PID.TID 0000.0001) %MON dynstat_uvel_min             =  -1.9811985473151E-01
(PID.TID 0000.0001) %MON dynstat_uvel_mean            =  -1.5325442564460E-03
(PID.TID 0000.0001) %MON dynstat_uvel_sd              =   1.6905274081674E-02
(PID.TID 0000.0001) %MON dynstat_uvel_del2            =   5.3153336395530E-03
(PID.TID 0000.0001) %MON dynstat_vvel_max             =   1.6338441077528E-01
(PID.TID 0000.0001) %MON dynstat_vvel_min             =  -1.4209152982797E-01
(PID.TID 0000.0001) %MON dynstat_vvel_mean            =  -5.6267404220644E-04
(PID.TID 0000.0001) %MON dynstat_vvel_sd              =   1.4833258569747E-02
(PID.TID 0000.0001) %MON dynstat_vvel_del2            =   4.9721065135166E-03
(PID.TID 0000.0001) %MON dynstat_wvel_max             =   3.1470706589935E-04
(PID.TID 0000.0001) %MON dynstat_wvel_min             =  -2.4070178953757E-04
(PID.TID 0000.0001) %MON dynstat_wvel_mean            =   4.5648407621667E-23
(PID.TID 0000.0001) %MON dynstat_wvel_sd              =   2.7601749591144E-05
(PID.TID 0000.0001) %MON dynstat_wvel_del2            =   1.1309347976687E-05
(PID.TID 0000.0001) %MON dynstat_theta_max            =   2.9716306081945E+01
(PID.TID 0000.0001) %MON dynstat_theta_min            =  -1.9547517611187E+00
(PID.TID 0000.0001) %MON dynstat_theta_mean           =   3.5927134825628E+00
(PID.TID 0000.0001) %MON dynstat_theta_sd             =   4.3435331349442E+00
(PID.TID 0000.0001) %MON dynstat_theta_del2           =   1.3176876977802E-01
(PID.TID 0000.0001) %MON dynstat_salt_max             =   3.7386565442109E+01
(PID.TID 0000.0001) %MON dynstat_salt_min             =   2.9799629404332E+01
(PID.TID 0000.0001) %MON dynstat_salt_mean            =   3.4716177016717E+01
(PID.TID 0000.0001) %MON dynstat_salt_sd              =   2.9365153654217E-01
(PID.TID 0000.0001) %MON dynstat_salt_del2            =   2.4259343637743E-02
(PID.TID 0000.0001) %MON advcfl_uvel_max              =   3.2724295661714E-02
(PID.TID 0000.0001) %MON advcfl_vvel_max              =   1.5871485321362E-02
(PID.TID 0000.0001) %MON advcfl_wvel_max              =   1.9100886644426E-01
(PID.TID 0000.0001) %MON advcfl_W_hf_max              =   1.5808319527580E-01
(PID.TID 0000.0001) %MON pe_b_mean                    =   2.1865443178260E-04
(PID.TID 0000.0001) %MON ke_max                       =   1.9816498289843E-02
(PID.TID 0000.0001) %MON ke_mean                      =   2.2982624827066E-04
(PID.TID 0000.0001) %MON ke_vol                       =   1.3226782436723E+18
(PID.TID 0000.0001) %MON vort_r_min                   =  -1.0524526557599E-06
(PID.TID 0000.0001) %MON vort_r_max                   =   6.7961217966767E-07
(PID.TID 0000.0001) %MON vort_a_mean                  =  -2.5205768635291E-05
(PID.TID 0000.0001) %MON vort_a_sd                    =   7.3403093489473E-05
(PID.TID 0000.0001) %MON vort_p_mean                  =  -3.1758668602221E-05
(PID.TID 0000.0001) %MON vort_p_sd                    =   1.3126333333933E-04
(PID.TID 0000.0001) %MON surfExpan_theta_mean         =   9.6622060914855E-06
(PID.TID 0000.0001) %MON surfExpan_salt_mean          =  -6.1384943073628E-07
(PID.TID 0000.0001) // =======================================================
(PID.TID 0000.0001) // End MONITOR dynamic field statistics
(PID.TID 0000.0001) // =======================================================
time,SST,SSS,fu,fv,Q,E-P,i0,i1,a,b =   2.3760E+06  3.3747E-01  3.4592E+01 -2.6800E-02 -4.0748E-02  2.5523E+02  0.0000E+00     1     2  4.1667E-01  5.8333E-01
time,fu0,fu1,fu =   2.3760E+06 -3.5633E-02 -1.4435E-02 -2.6800E-02  4.1667E-01  5.8333E-01
 cg2d: Sum(rhs),rhsMax =  -4.65072425015478E-13  8.29950274871825E+00
(PID.TID 0000.0001)                    cg2d_init_res =    5.66184518329940E-01
(PID.TID 0000.0001)                       cg2d_iters =    25
(PID.TID 0000.0001)                         cg2d_res =    2.50401682407801E-14
(PID.TID 0000.0001) // =======================================================
(PID.TID 0000.0001) // Begin MONITOR dynamic field statistics
(PID.TID 0000.0001) // =======================================================
(PID.TID 0000.0001) %MON time_tsnumber                =                    56
(PID.TID 0000.0001) %MON time_secondsf                =   2.4192000000000E+06
(PID.TID 0000.0001) %MON dynstat_eta_max              =   9.3901558178875E-01
(PID.TID 0000.0001) %MON dynstat_eta_min              =  -1.2357047406943E+00
(PID.TID 0000.0001) %MON dynstat_eta_mean             =  -1.0889831742627E-16
(PID.TID 0000.0001) %MON dynstat_eta_sd               =   4.1362868192254E-01
(PID.TID 0000.0001) %MON dynstat_eta_del2             =   1.9018801598303E-02
(PID.TID 0000.0001) %MON dynstat_uvel_max             =   1.6200892833731E-01
(PID.TID 0000.0001) %MON dynstat_uvel_min             =  -1.9707775968695E-01
(PID.TID 0000.0001) %MON dynstat_uvel_mean            =  -1.3868507690250E-03
(PID.TID 0000.0001) %MON dynstat_uvel_sd              =   1.6999872267364E-02
(PID.TID 0000.0001) %MON dynstat_uvel_del2            =   5.2900760926539E-03
(PID.TID 0000.0001) %MON dynstat_vvel_max             =   1.6417346285362E-01
(PID.TID 0000.0001) %MON dynstat_vvel_min             =  -1.4119297436057E-01
(PID.TID 0000.0001) %MON dynstat_vvel_mean            =  -8.2524089159101E-04
(PID.TID 0000.0001) %MON dynstat_vvel_sd              =   1.4908027770076E-02
(PID.TID 0000.0001) %MON dynstat_vvel_del2            =   4.9395250756143E-03
(PID.TID 0000.0001) %MON dynstat_wvel_max             =   3.1961806848644E-04
(PID.TID 0000.0001) %MON dynstat_wvel_min             =  -2.4090388527513E-04
(PID.TID 0000.0001) %MON dynstat_wvel_mean            =  -1.0437379448021E-21
(PID.TID 0000.0001) %MON dynstat_wvel_sd              =   2.7426401135794E-05
(PID.TID 0000.0001) %MON dynstat_wvel_del2            =   1.1185580055148E-05
(PID.TID 0000.0001) %MON dynstat_theta_max            =   2.9759525038827E+01
(PID.TID 0000.0001) %MON dynstat_theta_min            =  -1.9560516421394E+00
(PID.TID 0000.0001) %MON dynstat_theta_mean           =   3.5926520657347E+00
(PID.TID 0000.0001) %MON dynstat_theta_sd             =   4.3432424471569E+00
(PID.TID 0000.0001) %MON dynstat_theta_del2           =   1.3163294946969E-01
(PID.TID 0000.0001) %MON dynstat_salt_max             =   3.7387239753526E+01
(PID.TID 0000.0001) %MON dynstat_salt_min             =   2.9798782921961E+01
(PID.TID 0000.0001) %MON dynstat_salt_mean            =   3.4716184375424E+01
(PID.TID 0000.0001) %MON dynstat_salt_sd              =   2.9367602042122E-01
(PID.TID 0000.0001) %MON dynstat_salt_del2            =   2.4211565500406E-02
(PID.TID 0000.0001) %MON advcfl_uvel_max              =   3.3166863116424E-02
(PID.TID 0000.0001) %MON advcfl_vvel_max              =   1.5948135403336E-02
(PID.TID 0000.0001) %MON advcfl_wvel_max              =   1.8508152232022E-01
(PID.TID 0000.0001) %MON advcfl_W_hf_max              =   1.7011990922213E-01
(PID.TID 0000.0001) %MON pe_b_mean                    =   2.1892859619194E-04
(PID.TID 0000.0001) %MON ke_max                       =   1.9943664107944E-02
(PID.TID 0000.0001) %MON ke_mean                      =   2.3225210110169E-04
(PID.TID 0000.0001) %MON ke_vol                       =   1.3226782436723E+18
(PID.TID 0000.0001) %MON vort_r_min                   =  -1.0635934260237E-06
(PID.TID 0000.0001) %MON vort_r_max                   =   6.8779305358625E-07
(PID.TID 0000.0001) %MON vort_a_mean                  =  -2.5205768612673E-05
(PID.TID 0000.0001) %MON vort_a_sd                    =   7.3403120466535E-05
(PID.TID 0000.0001) %MON vort_p_mean                  =  -3.1758668573723E-05
(PID.TID 0000.0001) %MON vort_p_sd                    =   1.3126333069689E-04
(PID.TID 0000.0001) %MON surfExpan_theta_mean         =   9.6452979218679E-06
(PID.TID 0000.0001) %MON surfExpan_salt_mean          =  -6.4134699403261E-07
(PID.TID 0000.0001) // =======================================================
(PID.TID 0000.0001) // End MONITOR dynamic field statistics
(PID.TID 0000.0001) // =======================================================
time,SST,SSS,fu,fv,Q,E-P,i0,i1,a,b =   2.4192E+06  3.1264E-01  3.4587E+01 -2.6447E-02 -4.0088E-02  2.5481E+02  0.0000E+00     1     2  4.3333E-01  5.6667E-01
time,fu0,fu1,fu =   2.4192E+06 -3.5633E-02 -1.4435E-02 -2.6447E-02  4.3333E-01  5.6667E-01
 cg2d: Sum(rhs),rhsMax =   1.45744527557667E-13  8.37678260928996E+00
(PID.TID 0000.0001)                    cg2d_init_res =    5.56435395153421E-01
(PID.TID 0000.0001)                       cg2d_iters =    25
(PID.TID 0000.0001)                         cg2d_res =    2.43338710480828E-14
(PID.TID 0000.0001) // =======================================================
(PID.TID 0000.0001) // Begin MONITOR dynamic field statistics
(PID.TID 0000.0001) // =======================================================
(PID.TID 0000.0001) %MON time_tsnumber                =                    57
(PID.TID 0000.0001) %MON time_secondsf                =   2.4624000000000E+06
(PID.TID 0000.0001) %MON dynstat_eta_max              =   9.9351504543236E-01
(PID.TID 0000.0001) %MON dynstat_eta_min              =  -1.2605191013809E+00
(PID.TID 0000.0001) %MON dynstat_eta_mean             =   1.0299601007196E-16
(PID.TID 0000.0001) %MON dynstat_eta_sd               =   4.1404814003123E-01
(PID.TID 0000.0001) %MON dynstat_eta_del2             =   1.9021621219320E-02
(PID.TID 0000.0001) %MON dynstat_uvel_max             =   1.7225779427696E-01
(PID.TID 0000.0001) %MON dynstat_uvel_min             =  -1.9581046442044E-01
(PID.TID 0000.0001) %MON dynstat_uvel_mean            =  -1.2398784542999E-03
(PID.TID 0000.0001) %MON dynstat_uvel_sd              =   1.7118073130054E-02
(PID.TID 0000.0001) %MON dynstat_uvel_del2            =   5.2659163565984E-03
(PID.TID 0000.0001) %MON dynstat_vvel_max             =   1.6477176586577E-01
(PID.TID 0000.0001) %MON dynstat_vvel_min             =  -1.3992965427268E-01
(PID.TID 0000.0001) %MON dynstat_vvel_mean            =  -1.0673625995526E-03
(PID.TID 0000.0001) %MON dynstat_vvel_sd              =   1.4978719405363E-02
(PID.TID 0000.0001) %MON dynstat_vvel_del2            =   4.9060870086720E-03
(PID.TID 0000.0001) %MON dynstat_wvel_max             =   3.2423627145655E-04
(PID.TID 0000.0001) %MON dynstat_wvel_min             =  -2.4012190401169E-04
(PID.TID 0000.0001) %MON dynstat_wvel_mean            =   9.4081559835395E-23
(PID.TID 0000.0001) %MON dynstat_wvel_sd              =   2.7252266791843E-05
(PID.TID 0000.0001) %MON dynstat_wvel_del2            =   1.1061638698225E-05
(PID.TID 0000.0001) %MON dynstat_theta_max            =   2.9794185379257E+01
(PID.TID 0000.0001) %MON dynstat_theta_min            =  -1.9572100394458E+00
(PID.TID 0000.0001) %MON dynstat_theta_mean           =   3.5925888940942E+00
(PID.TID 0000.0001) %MON dynstat_theta_sd             =   4.3429714986681E+00
(PID.TID 0000.0001) %MON dynstat_theta_del2           =   1.3149024617657E-01
(PID.TID 0000.0001) %MON dynstat_salt_max             =   3.7387826361919E+01
(PID.TID 0000.0001) %MON dynstat_salt_min             =   2.9797885594184E+01
(PID.TID 0000.0001) %MON dynstat_salt_mean            =   3.4716191133624E+01
(PID.TID 0000.0001) %MON dynstat_salt_sd              =   2.9370473073421E-01
(PID.TID 0000.0001) %MON dynstat_salt_del2            =   2.4163229924376E-02
(PID.TID 0000.0001) %MON advcfl_uvel_max              =   3.3552598482763E-02
(PID.TID 0000.0001) %MON advcfl_vvel_max              =   1.6006255743153E-02
(PID.TID 0000.0001) %MON advcfl_wvel_max              =   1.9415361378006E-01
(PID.TID 0000.0001) %MON advcfl_W_hf_max              =   1.7757373459447E-01
(PID.TID 0000.0001) %MON pe_b_mean                    =   2.1937284941569E-04
(PID.TID 0000.0001) %MON ke_max                       =   2.0028681766708E-02
(PID.TID 0000.0001) %MON ke_mean                      =   2.3506308567380E-04
(PID.TID 0000.0001) %MON ke_vol                       =   1.3226782436723E+18
(PID.TID 0000.0001) %MON vort_r_min                   =  -1.0735014774402E-06
(PID.TID 0000.0001) %MON vort_r_max                   =   6.9472237233316E-07
(PID.TID 0000.0001) %MON vort_a_mean                  =  -2.5205768589468E-05
(PID.TID 0000.0001) %MON vort_a_sd                    =   7.3403147749664E-05
(PID.TID 0000.0001) %MON vort_p_mean                  =  -3.1758668544486E-05
(PID.TID 0000.0001) %MON vort_p_sd                    =   1.3126332181851E-04
(PID.TID 0000.0001) %MON surfExpan_theta_mean         =   9.7324719152148E-06
(PID.TID 0000.0001) %MON surfExpan_salt_mean          =  -6.1914890438309E-07
(PID.TID 0000.0001) // =======================================================
(PID.TID 0000.0001) // End MONITOR dynamic field statistics
(PID.TID 0000.0001) // =======================================================
time,SST,SSS,fu,fv,Q,E-P,i0,i1,a,b =   2.4624E+06  2.8780E-01  3.4582E+01 -2.6094E-02 -3.9427E-02  2.5439E+02  0.0000E+00     1     2  4.5000E-01  5.5000E-01
time,fu0,fu1,fu =   2.4624E+06 -3.5633E-02 -1.4435E-02 -2.6094E-02  4.5000E-01  5.5000E-01
 cg2d: Sum(rhs),rhsMax =   4.16333634234434E-16  9.30280280562477E+00
(PID.TID 0000.0001)                    cg2d_init_res =    4.94074532671507E-01
(PID.TID 0000.0001)                       cg2d_iters =    24
(PID.TID 0000.0001)                         cg2d_res =    9.76759112606674E-14
(PID.TID 0000.0001) // =======================================================
(PID.TID 0000.0001) // Begin MONITOR dynamic field statistics
(PID.TID 0000.0001) // =======================================================
(PID.TID 0000.0001) %MON time_tsnumber                =                    58
(PID.TID 0000.0001) %MON time_secondsf                =   2.5056000000000E+06
(PID.TID 0000.0001) %MON dynstat_eta_max              =   1.1044690502498E+00
(PID.TID 0000.0001) %MON dynstat_eta_min              =  -1.2789240647640E+00
(PID.TID 0000.0001) %MON dynstat_eta_mean             =  -1.3902354494613E-16
(PID.TID 0000.0001) %MON dynstat_eta_sd               =   4.1465460716463E-01
(PID.TID 0000.0001) %MON dynstat_eta_del2             =   1.9068253814479E-02
(PID.TID 0000.0001) %MON dynstat_uvel_max             =   1.8136107635865E-01
(PID.TID 0000.0001) %MON dynstat_uvel_min             =  -1.9432668871806E-01
(PID.TID 0000.0001) %MON dynstat_uvel_mean            =  -1.0932693302476E-03
(PID.TID 0000.0001) %MON dynstat_uvel_sd              =   1.7259466821416E-02
(PID.TID 0000.0001) %MON dynstat_uvel_del2            =   5.2433554341909E-03
(PID.TID 0000.0001) %MON dynstat_vvel_max             =   1.6519606459162E-01
(PID.TID 0000.0001) %MON dynstat_vvel_min             =  -1.3988687187416E-01
(PID.TID 0000.0001) %MON dynstat_vvel_mean            =  -1.2872395414083E-03
(PID.TID 0000.0001) %MON dynstat_vvel_sd              =   1.5040168095493E-02
(PID.TID 0000.0001) %MON dynstat_vvel_del2            =   4.8721957694073E-03
(PID.TID 0000.0001) %MON dynstat_wvel_max             =   3.2857881946782E-04
(PID.TID 0000.0001) %MON dynstat_wvel_min             =  -2.3824103823187E-04
(PID.TID 0000.0001) %MON dynstat_wvel_mean            =  -1.9467590660799E-22
(PID.TID 0000.0001) %MON dynstat_wvel_sd              =   2.7073377537207E-05
(PID.TID 0000.0001) %MON dynstat_wvel_del2            =   1.0937931544922E-05
(PID.TID 0000.0001) %MON dynstat_theta_max            =   2.9820115003242E+01
(PID.TID 0000.0001) %MON dynstat_theta_min            =  -1.9582218922618E+00
(PID.TID 0000.0001) %MON dynstat_theta_mean           =   3.5925228568691E+00
(PID.TID 0000.0001) %MON dynstat_theta_sd             =   4.3427160682492E+00
(PID.TID 0000.0001) %MON dynstat_theta_del2           =   1.3139062499045E-01
(PID.TID 0000.0001) %MON dynstat_salt_max             =   3.7388336077622E+01
(PID.TID 0000.0001) %MON dynstat_salt_min             =   2.9796932503681E+01
(PID.TID 0000.0001) %MON dynstat_salt_mean            =   3.4716196805572E+01
(PID.TID 0000.0001) %MON dynstat_salt_sd              =   2.9373628648357E-01
(PID.TID 0000.0001) %MON dynstat_salt_del2            =   2.4121039124068E-02
(PID.TID 0000.0001) %MON advcfl_uvel_max              =   3.3876593846070E-02
(PID.TID 0000.0001) %MON advcfl_vvel_max              =   1.6047472961902E-02
(PID.TID 0000.0001) %MON advcfl_wvel_max              =   2.0392115141370E-01
(PID.TID 0000.0001) %MON advcfl_W_hf_max              =   1.8493528597024E-01
(PID.TID 0000.0001) %MON pe_b_mean                    =   2.2001596235652E-04
(PID.TID 0000.0001) %MON ke_max                       =   2.0071273230692E-02
(PID.TID 0000.0001) %MON ke_mean                      =   2.3817656222668E-04
(PID.TID 0000.0001) %MON ke_vol                       =   1.3226782436723E+18
(PID.TID 0000.0001) %MON vort_r_min                   =  -1.0821419372909E-06
(PID.TID 0000.0001) %MON vort_r_max                   =   7.0037801303432E-07
(PID.TID 0000.0001) %MON vort_a_mean                  =  -2.5205768565212E-05
(PID.TID 0000.0001) %MON vort_a_sd                    =   7.3403175026447E-05
(PID.TID 0000.0001) %MON vort_p_mean                  =  -3.1758668513923E-05
(PID.TID 0000.0001) %MON vort_p_sd                    =   1.3126330682178E-04
(PID.TID 0000.0001) %MON surfExpan_theta_mean         =   9.9221382826518E-06
(PID.TID 0000.0001) %MON surfExpan_salt_mean          =  -5.5118721339187E-07
(PID.TID 0000.0001) // =======================================================
(PID.TID 0000.0001) // End MONITOR dynamic field statistics
(PID.TID 0000.0001) // =======================================================
time,SST,SSS,fu,fv,Q,E-P,i0,i1,a,b =   2.5056E+06  2.6296E-01  3.4578E+01 -2.5740E-02 -3.8767E-02  2.5397E+02  0.0000E+00     1     2  4.6667E-01  5.3333E-01
time,fu0,fu1,fu =   2.5056E+06 -3.5633E-02 -1.4435E-02 -2.5740E-02  4.6667E-01  5.3333E-01
 cg2d: Sum(rhs),rhsMax =   4.76285677564192E-14  1.01469451490319E+01
(PID.TID 0000.0001)                    cg2d_init_res =    4.43535513623079E-01
(PID.TID 0000.0001)                       cg2d_iters =    24
(PID.TID 0000.0001)                         cg2d_res =    8.69817085970388E-14
(PID.TID 0000.0001) // =======================================================
(PID.TID 0000.0001) // Begin MONITOR dynamic field statistics
(PID.TID 0000.0001) // =======================================================
(PID.TID 0000.0001) %MON time_tsnumber                =                    59
(PID.TID 0000.0001) %MON time_secondsf                =   2.5488000000000E+06
(PID.TID 0000.0001) %MON dynstat_eta_max              =   1.2028027891395E+00
(PID.TID 0000.0001) %MON dynstat_eta_min              =  -1.2910385320987E+00
(PID.TID 0000.0001) %MON dynstat_eta_mean             =  -1.5108760272333E-17
(PID.TID 0000.0001) %MON dynstat_eta_sd               =   4.1545533230592E-01
(PID.TID 0000.0001) %MON dynstat_eta_del2             =   1.9099405271267E-02
(PID.TID 0000.0001) %MON dynstat_uvel_max             =   1.8917861388501E-01
(PID.TID 0000.0001) %MON dynstat_uvel_min             =  -1.9263583579476E-01
(PID.TID 0000.0001) %MON dynstat_uvel_mean            =  -9.4853707873260E-04
(PID.TID 0000.0001) %MON dynstat_uvel_sd              =   1.7422469257254E-02
(PID.TID 0000.0001) %MON dynstat_uvel_del2            =   5.2225332784369E-03
(PID.TID 0000.0001) %MON dynstat_vvel_max             =   1.6547075880644E-01
(PID.TID 0000.0001) %MON dynstat_vvel_min             =  -1.4120126511933E-01
(PID.TID 0000.0001) %MON dynstat_vvel_mean            =  -1.4834801779436E-03
(PID.TID 0000.0001) %MON dynstat_vvel_sd              =   1.5089214354642E-02
(PID.TID 0000.0001) %MON dynstat_vvel_del2            =   4.8388805239171E-03
(PID.TID 0000.0001) %MON dynstat_wvel_max             =   3.3266515635110E-04
(PID.TID 0000.0001) %MON dynstat_wvel_min             =  -2.3517927952960E-04
(PID.TID 0000.0001) %MON dynstat_wvel_mean            =  -3.9771051566025E-22
(PID.TID 0000.0001) %MON dynstat_wvel_sd              =   2.6885799606613E-05
(PID.TID 0000.0001) %MON dynstat_wvel_del2            =   1.0816132389191E-05
(PID.TID 0000.0001) %MON dynstat_theta_max            =   2.9837197866186E+01
(PID.TID 0000.0001) %MON dynstat_theta_min            =  -1.9590794922154E+00
(PID.TID 0000.0001) %MON dynstat_theta_mean           =   3.5924529292396E+00
(PID.TID 0000.0001) %MON dynstat_theta_sd             =   4.3424734096443E+00
(PID.TID 0000.0001) %MON dynstat_theta_del2           =   1.3123282244888E-01
(PID.TID 0000.0001) %MON dynstat_salt_max             =   3.7388777420854E+01
(PID.TID 0000.0001) %MON dynstat_salt_min             =   2.9795918491107E+01
(PID.TID 0000.0001) %MON dynstat_salt_mean            =   3.4716200981659E+01
(PID.TID 0000.0001) %MON dynstat_salt_sd              =   2.9376992454338E-01
(PID.TID 0000.0001) %MON dynstat_salt_del2            =   2.4072224755224E-02
(PID.TID 0000.0001) %MON advcfl_uvel_max              =   3.4679217286851E-02
(PID.TID 0000.0001) %MON advcfl_vvel_max              =   1.6074157302090E-02
(PID.TID 0000.0001) %MON advcfl_wvel_max              =   2.0819874889168E-01
(PID.TID 0000.0001) %MON advcfl_W_hf_max              =   1.8883883762546E-01
(PID.TID 0000.0001) %MON pe_b_mean                    =   2.2086651319869E-04
(PID.TID 0000.0001) %MON ke_max                       =   2.0071554855233E-02
(PID.TID 0000.0001) %MON ke_mean                      =   2.4151818028516E-04
(PID.TID 0000.0001) %MON ke_vol                       =   1.3226782436723E+18
(PID.TID 0000.0001) %MON vort_r_min                   =  -1.0894746516128E-06
(PID.TID 0000.0001) %MON vort_r_max                   =   7.0474440561569E-07
(PID.TID 0000.0001) %MON vort_a_mean                  =  -2.5205768539509E-05
(PID.TID 0000.0001) %MON vort_a_sd                    =   7.3403201996826E-05
(PID.TID 0000.0001) %MON vort_p_mean                  =  -3.1758668481538E-05
(PID.TID 0000.0001) %MON vort_p_sd                    =   1.3126328614007E-04
(PID.TID 0000.0001) %MON surfExpan_theta_mean         =   1.0203940552162E-05
(PID.TID 0000.0001) %MON surfExpan_salt_mean          =  -4.4415032204647E-07
(PID.TID 0000.0001) // =======================================================
(PID.TID 0000.0001) // End MONITOR dynamic field statistics
(PID.TID 0000.0001) // =======================================================
time,SST,SSS,fu,fv,Q,E-P,i0,i1,a,b =   2.5488E+06  2.3812E-01  3.4573E+01 -2.5387E-02 -3.8106E-02  2.5355E+02  0.0000E+00     1     2  4.8333E-01  5.1667E-01
time,fu0,fu1,fu =   2.5488E+06 -3.5633E-02 -1.4435E-02 -2.5387E-02  4.8333E-01  5.1667E-01
 cg2d: Sum(rhs),rhsMax =  -3.01189628792997E-13  1.08659380191331E+01
(PID.TID 0000.0001)                    cg2d_init_res =    4.02742147104362E-01
(PID.TID 0000.0001)                       cg2d_iters =    24
(PID.TID 0000.0001)                         cg2d_res =    7.74131913593527E-14
(PID.TID 0000.0001) // =======================================================
(PID.TID 0000.0001) // Begin MONITOR dynamic field statistics
(PID.TID 0000.0001) // =======================================================
(PID.TID 0000.0001) %MON time_tsnumber                =                    60
(PID.TID 0000.0001) %MON time_secondsf                =   2.5920000000000E+06
(PID.TID 0000.0001) %MON dynstat_eta_max              =   1.2865750746034E+00
(PID.TID 0000.0001) %MON dynstat_eta_min              =  -1.2971154060098E+00
(PID.TID 0000.0001) %MON dynstat_eta_mean             =  -1.8038758239364E-16
(PID.TID 0000.0001) %MON dynstat_eta_sd               =   4.1643851761712E-01
(PID.TID 0000.0001) %MON dynstat_eta_del2             =   1.9151051937158E-02
(PID.TID 0000.0001) %MON dynstat_uvel_max             =   1.9558918702116E-01
(PID.TID 0000.0001) %MON dynstat_uvel_min             =  -1.9074768852048E-01
(PID.TID 0000.0001) %MON dynstat_uvel_mean            =  -8.0703882185300E-04
(PID.TID 0000.0001) %MON dynstat_uvel_sd              =   1.7604276873479E-02
(PID.TID 0000.0001) %MON dynstat_uvel_del2            =   5.2033865467355E-03
(PID.TID 0000.0001) %MON dynstat_vvel_max             =   1.6562663173224E-01
(PID.TID 0000.0001) %MON dynstat_vvel_min             =  -1.4311881625353E-01
(PID.TID 0000.0001) %MON dynstat_vvel_mean            =  -1.6551061396119E-03
(PID.TID 0000.0001) %MON dynstat_vvel_sd              =   1.5124824669891E-02
(PID.TID 0000.0001) %MON dynstat_vvel_del2            =   4.8074488384334E-03
(PID.TID 0000.0001) %MON dynstat_wvel_max             =   3.3651588277653E-04
(PID.TID 0000.0001) %MON dynstat_wvel_min             =  -2.3089019442103E-04
(PID.TID 0000.0001) %MON dynstat_wvel_mean            =   1.8265633743551E-22
(PID.TID 0000.0001) %MON dynstat_wvel_sd              =   2.6688451472164E-05
(PID.TID 0000.0001) %MON dynstat_wvel_del2            =   1.0695376969762E-05
(PID.TID 0000.0001) %MON dynstat_theta_max            =   2.9845363862343E+01
(PID.TID 0000.0001) %MON dynstat_theta_min            =  -1.9597731146465E+00
(PID.TID 0000.0001) %MON dynstat_theta_mean           =   3.5923783044343E+00
(PID.TID 0000.0001) %MON dynstat_theta_sd             =   4.3422380323569E+00
(PID.TID 0000.0001) %MON dynstat_theta_del2           =   1.3108893409860E-01
(PID.TID 0000.0001) %MON dynstat_salt_max             =   3.7389161918812E+01
(PID.TID 0000.0001) %MON dynstat_salt_min             =   2.9794838547983E+01
(PID.TID 0000.0001) %MON dynstat_salt_mean            =   3.4716203352558E+01
(PID.TID 0000.0001) %MON dynstat_salt_sd              =   2.9380432768109E-01
(PID.TID 0000.0001) %MON dynstat_salt_del2            =   2.4025430355447E-02
(PID.TID 0000.0001) %MON advcfl_uvel_max              =   3.5854369457365E-02
(PID.TID 0000.0001) %MON advcfl_vvel_max              =   1.6089299106881E-02
(PID.TID 0000.0001) %MON advcfl_wvel_max              =   2.0679506977961E-01
(PID.TID 0000.0001) %MON advcfl_W_hf_max              =   1.8749044150683E-01
(PID.TID 0000.0001) %MON pe_b_mean                    =   2.2191312227185E-04
(PID.TID 0000.0001) %MON ke_max                       =   2.0029966699570E-02
(PID.TID 0000.0001) %MON ke_mean                      =   2.4502332309308E-04
(PID.TID 0000.0001) %MON ke_vol                       =   1.3226782436723E+18
(PID.TID 0000.0001) %MON vort_r_min                   =  -1.0954531506748E-06
(PID.TID 0000.0001) %MON vort_r_max                   =   7.0781155196858E-07
(PID.TID 0000.0001) %MON vort_a_mean                  =  -2.5205768512053E-05
(PID.TID 0000.0001) %MON vort_a_sd                    =   7.3403228381649E-05
(PID.TID 0000.0001) %MON vort_p_mean                  =  -3.1758668446944E-05
(PID.TID 0000.0001) %MON vort_p_sd                    =   1.3126326003404E-04
(PID.TID 0000.0001) %MON surfExpan_theta_mean         =   1.0568700571787E-05
(PID.TID 0000.0001) %MON surfExpan_salt_mean          =  -3.0480157505327E-07
(PID.TID 0000.0001) // =======================================================
(PID.TID 0000.0001) // End MONITOR dynamic field statistics
(PID.TID 0000.0001) // =======================================================
(PID.TID 0000.0001) // Time-average data written, t-step        60
(PID.TID 0000.0001) 
time,SST,SSS,fu,fv,Q,E-P,i0,i1,a,b =   2.5920E+06  2.1328E-01  3.4568E+01 -2.5034E-02 -3.7446E-02  2.5313E+02  0.0000E+00     1     2  5.0000E-01  5.0000E-01
time,fu0,fu1,fu =   2.5920E+06 -3.5633E-02 -1.4435E-02 -2.5034E-02  5.0000E-01  5.0000E-01
 cg2d: Sum(rhs),rhsMax =   2.58265631103427E-14  1.14474198326271E+01
(PID.TID 0000.0001)                    cg2d_init_res =    3.69684313054615E-01
(PID.TID 0000.0001)                       cg2d_iters =    24
(PID.TID 0000.0001)                         cg2d_res =    6.76381600899393E-14
(PID.TID 0000.0001) // =======================================================
(PID.TID 0000.0001) // Begin MONITOR dynamic field statistics
(PID.TID 0000.0001) // =======================================================
(PID.TID 0000.0001) %MON time_tsnumber                =                    61
(PID.TID 0000.0001) %MON time_secondsf                =   2.6352000000000E+06
(PID.TID 0000.0001) %MON dynstat_eta_max              =   1.3543459118801E+00
(PID.TID 0000.0001) %MON dynstat_eta_min              =  -1.2975219156162E+00
(PID.TID 0000.0001) %MON dynstat_eta_mean             =  -2.1892741528007E-17
(PID.TID 0000.0001) %MON dynstat_eta_sd               =   4.1757656577568E-01
(PID.TID 0000.0001) %MON dynstat_eta_del2             =   1.9262084236459E-02
(PID.TID 0000.0001) %MON dynstat_uvel_max             =   2.0049265223062E-01
(PID.TID 0000.0001) %MON dynstat_uvel_min             =  -1.8867209879591E-01
(PID.TID 0000.0001) %MON dynstat_uvel_mean            =  -6.6993434205160E-04
(PID.TID 0000.0001) %MON dynstat_uvel_sd              =   1.7800912821099E-02
(PID.TID 0000.0001) %MON dynstat_uvel_del2            =   5.1856477321006E-03
(PID.TID 0000.0001) %MON dynstat_vvel_max             =   1.6569913063347E-01
(PID.TID 0000.0001) %MON dynstat_vvel_min             =  -1.4347831007285E-01
(PID.TID 0000.0001) %MON dynstat_vvel_mean            =  -1.8015463316939E-03
(PID.TID 0000.0001) %MON dynstat_vvel_sd              =   1.5147957727366E-02
(PID.TID 0000.0001) %MON dynstat_vvel_del2            =   4.7792565578044E-03
(PID.TID 0000.0001) %MON dynstat_wvel_max             =   3.4015172594544E-04
(PID.TID 0000.0001) %MON dynstat_wvel_min             =  -2.2536327565894E-04
(PID.TID 0000.0001) %MON dynstat_wvel_mean            =  -4.0285342623733E-22
(PID.TID 0000.0001) %MON dynstat_wvel_sd              =   2.6482834403303E-05
(PID.TID 0000.0001) %MON dynstat_wvel_del2            =   1.0579296835027E-05
(PID.TID 0000.0001) %MON dynstat_theta_max            =   2.9844206172810E+01
(PID.TID 0000.0001) %MON dynstat_theta_min            =  -1.9602915690904E+00
(PID.TID 0000.0001) %MON dynstat_theta_mean           =   3.5922982926707E+00
(PID.TID 0000.0001) %MON dynstat_theta_sd             =   4.3420041924692E+00
(PID.TID 0000.0001) %MON dynstat_theta_del2           =   1.3097679529217E-01
(PID.TID 0000.0001) %MON dynstat_salt_max             =   3.7389501993017E+01
(PID.TID 0000.0001) %MON dynstat_salt_min             =   2.9793688187515E+01
(PID.TID 0000.0001) %MON dynstat_salt_mean            =   3.4716203697708E+01
(PID.TID 0000.0001) %MON dynstat_salt_sd              =   2.9383823384840E-01
(PID.TID 0000.0001) %MON dynstat_salt_del2            =   2.3982227789720E-02
(PID.TID 0000.0001) %MON advcfl_uvel_max              =   3.6753246618822E-02
(PID.TID 0000.0001) %MON advcfl_vvel_max              =   1.6096341793763E-02
(PID.TID 0000.0001) %MON advcfl_wvel_max              =   1.9970634177615E-01
(PID.TID 0000.0001) %MON advcfl_W_hf_max              =   1.8088759960459E-01
(PID.TID 0000.0001) %MON pe_b_mean                    =   2.2312767324307E-04
(PID.TID 0000.0001) %MON ke_max                       =   1.9947199899689E-02
(PID.TID 0000.0001) %MON ke_mean                      =   2.4863588440115E-04
(PID.TID 0000.0001) %MON ke_vol                       =   1.3226782436723E+18
(PID.TID 0000.0001) %MON vort_r_min                   =  -1.1000245852798E-06
(PID.TID 0000.0001) %MON vort_r_max                   =   7.0957407781620E-07
(PID.TID 0000.0001) %MON vort_a_mean                  =  -2.5205768482639E-05
(PID.TID 0000.0001) %MON vort_a_sd                    =   7.3403253933725E-05
(PID.TID 0000.0001) %MON vort_p_mean                  =  -3.1758668409884E-05
(PID.TID 0000.0001) %MON vort_p_sd                    =   1.3126322922779E-04
(PID.TID 0000.0001) %MON surfExpan_theta_mean         =   1.1002938739570E-05
(PID.TID 0000.0001) %MON surfExpan_salt_mean          =  -1.4113679995345E-07
(PID.TID 0000.0001) // =======================================================
(PID.TID 0000.0001) // End MONITOR dynamic field statistics
(PID.TID 0000.0001) // =======================================================
time,SST,SSS,fu,fv,Q,E-P,i0,i1,a,b =   2.6352E+06  1.8845E-01  3.4563E+01 -2.4681E-02 -3.6786E-02  2.5270E+02  0.0000E+00     1     2  5.1667E-01  4.8333E-01
time,fu0,fu1,fu =   2.6352E+06 -3.5633E-02 -1.4435E-02 -2.4681E-02  5.1667E-01  4.8333E-01
 cg2d: Sum(rhs),rhsMax =  -3.47138984224671E-13  1.18834278549886E+01
(PID.TID 0000.0001)                    cg2d_init_res =    3.43510376557438E-01
(PID.TID 0000.0001)                       cg2d_iters =    24
(PID.TID 0000.0001)                         cg2d_res =    4.72055607018242E-14
(PID.TID 0000.0001) // =======================================================
(PID.TID 0000.0001) // Begin MONITOR dynamic field statistics
(PID.TID 0000.0001) // =======================================================
(PID.TID 0000.0001) %MON time_tsnumber                =                    62
(PID.TID 0000.0001) %MON time_secondsf                =   2.6784000000000E+06
(PID.TID 0000.0001) %MON dynstat_eta_max              =   1.4051854122034E+00
(PID.TID 0000.0001) %MON dynstat_eta_min              =  -1.2927187617581E+00
(PID.TID 0000.0001) %MON dynstat_eta_mean             =  -6.3467620948341E-17
(PID.TID 0000.0001) %MON dynstat_eta_sd               =   4.1883132983129E-01
(PID.TID 0000.0001) %MON dynstat_eta_del2             =   1.9437896306529E-02
(PID.TID 0000.0001) %MON dynstat_uvel_max             =   2.0381175481836E-01
(PID.TID 0000.0001) %MON dynstat_uvel_min             =  -1.8641870018388E-01
(PID.TID 0000.0001) %MON dynstat_uvel_mean            =  -5.3816282503791E-04
(PID.TID 0000.0001) %MON dynstat_uvel_sd              =   1.8007384327601E-02
(PID.TID 0000.0001) %MON dynstat_uvel_del2            =   5.1694700820148E-03
(PID.TID 0000.0001) %MON dynstat_vvel_max             =   1.6572692466442E-01
(PID.TID 0000.0001) %MON dynstat_vvel_min             =  -1.4410868642868E-01
(PID.TID 0000.0001) %MON dynstat_vvel_mean            =  -1.9226356274279E-03
(PID.TID 0000.0001) %MON dynstat_vvel_sd              =   1.5161193047935E-02
(PID.TID 0000.0001) %MON dynstat_vvel_del2            =   4.7534416332823E-03
(PID.TID 0000.0001) %MON dynstat_wvel_max             =   3.4359250276372E-04
(PID.TID 0000.0001) %MON dynstat_wvel_min             =  -2.1862339214714E-04
(PID.TID 0000.0001) %MON dynstat_wvel_mean            =  -1.6921579621128E-22
(PID.TID 0000.0001) %MON dynstat_wvel_sd              =   2.6272784825427E-05
(PID.TID 0000.0001) %MON dynstat_wvel_del2            =   1.0466917535239E-05
(PID.TID 0000.0001) %MON dynstat_theta_max            =   2.9832599798913E+01
(PID.TID 0000.0001) %MON dynstat_theta_min            =  -1.9606228513241E+00
(PID.TID 0000.0001) %MON dynstat_theta_mean           =   3.5922123868214E+00
(PID.TID 0000.0001) %MON dynstat_theta_sd             =   4.3417674722016E+00
(PID.TID 0000.0001) %MON dynstat_theta_del2           =   1.3084360533526E-01
(PID.TID 0000.0001) %MON dynstat_salt_max             =   3.7389810213072E+01
(PID.TID 0000.0001) %MON dynstat_salt_min             =   2.9792463772611E+01
(PID.TID 0000.0001) %MON dynstat_salt_mean            =   3.4716201894193E+01
(PID.TID 0000.0001) %MON dynstat_salt_sd              =   2.9387057901182E-01
(PID.TID 0000.0001) %MON dynstat_salt_del2            =   2.3938739211525E-02
(PID.TID 0000.0001) %MON advcfl_uvel_max              =   3.7361686851436E-02
(PID.TID 0000.0001) %MON advcfl_vvel_max              =   1.6099041760989E-02
(PID.TID 0000.0001) %MON advcfl_wvel_max              =   1.8712295958010E-01
(PID.TID 0000.0001) %MON advcfl_W_hf_max              =   1.6920743807015E-01
(PID.TID 0000.0001) %MON pe_b_mean                    =   2.2447062803528E-04
(PID.TID 0000.0001) %MON ke_max                       =   1.9824128322701E-02
(PID.TID 0000.0001) %MON ke_mean                      =   2.5230504053319E-04
(PID.TID 0000.0001) %MON ke_vol                       =   1.3226782436723E+18
(PID.TID 0000.0001) %MON vort_r_min                   =  -1.1031313152582E-06
(PID.TID 0000.0001) %MON vort_r_max                   =   7.1003038390440E-07
(PID.TID 0000.0001) %MON vort_a_mean                  =  -2.5205768451165E-05
(PID.TID 0000.0001) %MON vort_a_sd                    =   7.3403278444671E-05
(PID.TID 0000.0001) %MON vort_p_mean                  =  -3.1758668370227E-05
(PID.TID 0000.0001) %MON vort_p_sd                    =   1.3126319456697E-04
(PID.TID 0000.0001) %MON surfExpan_theta_mean         =   1.1487572441047E-05
(PID.TID 0000.0001) %MON surfExpan_salt_mean          =   3.8242712235862E-08
(PID.TID 0000.0001) // =======================================================
(PID.TID 0000.0001) // End MONITOR dynamic field statistics
(PID.TID 0000.0001) // =======================================================
time,SST,SSS,fu,fv,Q,E-P,i0,i1,a,b =   2.6784E+06  1.6361E-01  3.4558E+01 -2.4327E-02 -3.6125E-02  2.5228E+02  0.0000E+00     1     2  5.3333E-01  4.6667E-01
time,fu0,fu1,fu =   2.6784E+06 -3.5633E-02 -1.4435E-02 -2.4327E-02  5.3333E-01  4.6667E-01
 cg2d: Sum(rhs),rhsMax =   6.99579283391927E-14  1.21703387576391E+01
(PID.TID 0000.0001)                    cg2d_init_res =    3.24125026616322E-01
(PID.TID 0000.0001)                       cg2d_iters =    24
(PID.TID 0000.0001)                         cg2d_res =    4.58168230976506E-14
(PID.TID 0000.0001) // =======================================================
(PID.TID 0000.0001) // Begin MONITOR dynamic field statistics
(PID.TID 0000.0001) // =======================================================
(PID.TID 0000.0001) %MON time_tsnumber                =                    63
(PID.TID 0000.0001) %MON time_secondsf                =   2.7216000000000E+06
(PID.TID 0000.0001) %MON dynstat_eta_max              =   1.4386673704525E+00
(PID.TID 0000.0001) %MON dynstat_eta_min              =  -1.2832394937798E+00
(PID.TID 0000.0001) %MON dynstat_eta_mean             =  -8.0841863190589E-17
(PID.TID 0000.0001) %MON dynstat_eta_sd               =   4.2016059672799E-01
(PID.TID 0000.0001) %MON dynstat_eta_del2             =   1.9618481894039E-02
(PID.TID 0000.0001) %MON dynstat_uvel_max             =   2.0549297831915E-01
(PID.TID 0000.0001) %MON dynstat_uvel_min             =  -1.8399665125640E-01
(PID.TID 0000.0001) %MON dynstat_uvel_mean            =  -4.1244610784993E-04
(PID.TID 0000.0001) %MON dynstat_uvel_sd              =   1.8217927112769E-02
(PID.TID 0000.0001) %MON dynstat_uvel_del2            =   5.1547419182929E-03
(PID.TID 0000.0001) %MON dynstat_vvel_max             =   1.6652454211376E-01
(PID.TID 0000.0001) %MON dynstat_vvel_min             =  -1.4475242727907E-01
(PID.TID 0000.0001) %MON dynstat_vvel_mean            =  -2.0185943713161E-03
(PID.TID 0000.0001) %MON dynstat_vvel_sd              =   1.5168183705194E-02
(PID.TID 0000.0001) %MON dynstat_vvel_del2            =   4.7308181228767E-03
(PID.TID 0000.0001) %MON dynstat_wvel_max             =   3.4685628013876E-04
(PID.TID 0000.0001) %MON dynstat_wvel_min             =  -2.1072969499366E-04
(PID.TID 0000.0001) %MON dynstat_wvel_mean            =  -6.0139161162769E-22
(PID.TID 0000.0001) %MON dynstat_wvel_sd              =   2.6063619256663E-05
(PID.TID 0000.0001) %MON dynstat_wvel_del2            =   1.0359407669383E-05
(PID.TID 0000.0001) %MON dynstat_theta_max            =   2.9810616036498E+01
(PID.TID 0000.0001) %MON dynstat_theta_min            =  -1.9607548179333E+00
(PID.TID 0000.0001) %MON dynstat_theta_mean           =   3.5921203781261E+00
(PID.TID 0000.0001) %MON dynstat_theta_sd             =   4.3415234988882E+00
(PID.TID 0000.0001) %MON dynstat_theta_del2           =   1.3070865703474E-01
(PID.TID 0000.0001) %MON dynstat_salt_max             =   3.7390098572091E+01
(PID.TID 0000.0001) %MON dynstat_salt_min             =   2.9791162801675E+01
(PID.TID 0000.0001) %MON dynstat_salt_mean            =   3.4716197917082E+01
(PID.TID 0000.0001) %MON dynstat_salt_sd              =   2.9390036960998E-01
(PID.TID 0000.0001) %MON dynstat_salt_del2            =   2.3899618767477E-02
(PID.TID 0000.0001) %MON advcfl_uvel_max              =   3.7669879801443E-02
(PID.TID 0000.0001) %MON advcfl_vvel_max              =   1.6176523900070E-02
(PID.TID 0000.0001) %MON advcfl_wvel_max              =   1.6942748576455E-01
(PID.TID 0000.0001) %MON advcfl_W_hf_max              =   1.5280480409304E-01
(PID.TID 0000.0001) %MON pe_b_mean                    =   2.2589771740578E-04
(PID.TID 0000.0001) %MON ke_max                       =   1.9661756574810E-02
(PID.TID 0000.0001) %MON ke_mean                      =   2.5598077261991E-04
(PID.TID 0000.0001) %MON ke_vol                       =   1.3226782436723E+18
(PID.TID 0000.0001) %MON vort_r_min                   =  -1.1047120436547E-06
(PID.TID 0000.0001) %MON vort_r_max                   =   7.0918213685807E-07
(PID.TID 0000.0001) %MON vort_a_mean                  =  -2.5205768417634E-05
(PID.TID 0000.0001) %MON vort_a_sd                    =   7.3403301747284E-05
(PID.TID 0000.0001) %MON vort_p_mean                  =  -3.1758668327978E-05
(PID.TID 0000.0001) %MON vort_p_sd                    =   1.3126315695890E-04
(PID.TID 0000.0001) %MON surfExpan_theta_mean         =   1.2005677886999E-05
(PID.TID 0000.0001) %MON surfExpan_salt_mean          =   2.2564088191386E-07
(PID.TID 0000.0001) // =======================================================
(PID.TID 0000.0001) // End MONITOR dynamic field statistics
(PID.TID 0000.0001) // =======================================================
time,SST,SSS,fu,fv,Q,E-P,i0,i1,a,b =   2.7216E+06  1.3877E-01  3.4553E+01 -2.3974E-02 -3.5465E-02  2.5186E+02  0.0000E+00     1     2  5.5000E-01  4.5000E-01
time,fu0,fu1,fu =   2.7216E+06 -3.5633E-02 -1.4435E-02 -2.3974E-02  5.5000E-01  4.5000E-01
 cg2d: Sum(rhs),rhsMax =  -1.61079483085302E-13  1.23086917903239E+01
(PID.TID 0000.0001)                    cg2d_init_res =    3.11872196115300E-01
(PID.TID 0000.0001)                       cg2d_iters =    24
(PID.TID 0000.0001)                         cg2d_res =    5.25837189074080E-14
(PID.TID 0000.0001) // =======================================================
(PID.TID 0000.0001) // Begin MONITOR dynamic field statistics
(PID.TID 0000.0001) // =======================================================
(PID.TID 0000.0001) %MON time_tsnumber                =                    64
(PID.TID 0000.0001) %MON time_secondsf                =   2.7648000000000E+06
(PID.TID 0000.0001) %MON dynstat_eta_max              =   1.4548491785566E+00
(PID.TID 0000.0001) %MON dynstat_eta_min              =  -1.3064007618201E+00
(PID.TID 0000.0001) %MON dynstat_eta_mean             =  -2.8524539998035E-16
(PID.TID 0000.0001) %MON dynstat_eta_sd               =   4.2152467011791E-01
(PID.TID 0000.0001) %MON dynstat_eta_del2             =   1.9762611156015E-02
(PID.TID 0000.0001) %MON dynstat_uvel_max             =   2.0550748309562E-01
(PID.TID 0000.0001) %MON dynstat_uvel_min             =  -1.8141444137125E-01
(PID.TID 0000.0001) %MON dynstat_uvel_mean            =  -2.9328008408580E-04
(PID.TID 0000.0001) %MON dynstat_uvel_sd              =   1.8426291862324E-02
(PID.TID 0000.0001) %MON dynstat_uvel_del2            =   5.1418337992611E-03
(PID.TID 0000.0001) %MON dynstat_vvel_max             =   1.6988862544530E-01
(PID.TID 0000.0001) %MON dynstat_vvel_min             =  -1.4524916228607E-01
(PID.TID 0000.0001) %MON dynstat_vvel_mean            =  -2.0900160136268E-03
(PID.TID 0000.0001) %MON dynstat_vvel_sd              =   1.5173031728226E-02
(PID.TID 0000.0001) %MON dynstat_vvel_del2            =   4.7108664805070E-03
(PID.TID 0000.0001) %MON dynstat_wvel_max             =   3.4995850880721E-04
(PID.TID 0000.0001) %MON dynstat_wvel_min             =  -2.0727822749022E-04
(PID.TID 0000.0001) %MON dynstat_wvel_mean            =  -2.2458869195810E-23
(PID.TID 0000.0001) %MON dynstat_wvel_sd              =   2.5861024162759E-05
(PID.TID 0000.0001) %MON dynstat_wvel_del2            =   1.0258136114968E-05
(PID.TID 0000.0001) %MON dynstat_theta_max            =   2.9777679199263E+01
(PID.TID 0000.0001) %MON dynstat_theta_min            =  -1.9606758403210E+00
(PID.TID 0000.0001) %MON dynstat_theta_mean           =   3.5920222084227E+00
(PID.TID 0000.0001) %MON dynstat_theta_sd             =   4.3412684677198E+00
(PID.TID 0000.0001) %MON dynstat_theta_del2           =   1.3056906229088E-01
(PID.TID 0000.0001) %MON dynstat_salt_max             =   3.7390377814655E+01
(PID.TID 0000.0001) %MON dynstat_salt_min             =   2.9789784279262E+01
(PID.TID 0000.0001) %MON dynstat_salt_mean            =   3.4716191817616E+01
(PID.TID 0000.0001) %MON dynstat_salt_sd              =   2.9392670748251E-01
(PID.TID 0000.0001) %MON dynstat_salt_del2            =   2.3861568797882E-02
(PID.TID 0000.0001) %MON advcfl_uvel_max              =   3.7672538739918E-02
(PID.TID 0000.0001) %MON advcfl_vvel_max              =   1.6503317619024E-02
(PID.TID 0000.0001) %MON advcfl_wvel_max              =   1.4718383733549E-01
(PID.TID 0000.0001) %MON advcfl_W_hf_max              =   1.3220220983099E-01
(PID.TID 0000.0001) %MON pe_b_mean                    =   2.2736687594000E-04
(PID.TID 0000.0001) %MON ke_max                       =   1.9461174774019E-02
(PID.TID 0000.0001) %MON ke_mean                      =   2.5960920363254E-04
(PID.TID 0000.0001) %MON ke_vol                       =   1.3226782436723E+18
(PID.TID 0000.0001) %MON vort_r_min                   =  -1.1047051683589E-06
(PID.TID 0000.0001) %MON vort_r_max                   =   7.0703376407369E-07
(PID.TID 0000.0001) %MON vort_a_mean                  =  -2.5205768382151E-05
(PID.TID 0000.0001) %MON vort_a_sd                    =   7.3403323718863E-05
(PID.TID 0000.0001) %MON vort_p_mean                  =  -3.1758668283270E-05
(PID.TID 0000.0001) %MON vort_p_sd                    =   1.3126311738982E-04
(PID.TID 0000.0001) %MON surfExpan_theta_mean         =   1.2534688328531E-05
(PID.TID 0000.0001) %MON surfExpan_salt_mean          =   4.1247782920309E-07
(PID.TID 0000.0001) // =======================================================
(PID.TID 0000.0001) // End MONITOR dynamic field statistics
(PID.TID 0000.0001) // =======================================================
time,SST,SSS,fu,fv,Q,E-P,i0,i1,a,b =   2.7648E+06  1.1393E-01  3.4548E+01 -2.3621E-02 -3.4805E-02  2.5144E+02  0.0000E+00     1     2  5.6667E-01  4.3333E-01
time,fu0,fu1,fu =   2.7648E+06 -3.5633E-02 -1.4435E-02 -2.3621E-02  5.6667E-01  4.3333E-01
 cg2d: Sum(rhs),rhsMax =  -1.73056013963446E-13  1.23029134190876E+01
(PID.TID 0000.0001)                    cg2d_init_res =    3.07221079175790E-01
(PID.TID 0000.0001)                       cg2d_iters =    24
(PID.TID 0000.0001)                         cg2d_res =    4.72426814293108E-14
(PID.TID 0000.0001) // =======================================================
(PID.TID 0000.0001) // Begin MONITOR dynamic field statistics
(PID.TID 0000.0001) // =======================================================
(PID.TID 0000.0001) %MON time_tsnumber                =                    65
(PID.TID 0000.0001) %MON time_secondsf                =   2.8080000000000E+06
(PID.TID 0000.0001) %MON dynstat_eta_max              =   1.4542402307192E+00
(PID.TID 0000.0001) %MON dynstat_eta_min              =  -1.3379240490157E+00
(PID.TID 0000.0001) %MON dynstat_eta_mean             =   1.4233418885083E-17
(PID.TID 0000.0001) %MON dynstat_eta_sd               =   4.2289204570744E-01
(PID.TID 0000.0001) %MON dynstat_eta_del2             =   1.9834666054832E-02
(PID.TID 0000.0001) %MON dynstat_uvel_max             =   2.0385089094495E-01
(PID.TID 0000.0001) %MON dynstat_uvel_min             =  -1.7867979407416E-01
(PID.TID 0000.0001) %MON dynstat_uvel_mean            =  -1.8095090849093E-04
(PID.TID 0000.0001) %MON dynstat_uvel_sd              =   1.8626068321771E-02
(PID.TID 0000.0001) %MON dynstat_uvel_del2            =   5.1298555564902E-03
(PID.TID 0000.0001) %MON dynstat_vvel_max             =   1.7292136098122E-01
(PID.TID 0000.0001) %MON dynstat_vvel_min             =  -1.4561088309286E-01
(PID.TID 0000.0001) %MON dynstat_vvel_mean            =  -2.1378379767974E-03
(PID.TID 0000.0001) %MON dynstat_vvel_sd              =   1.5179654409946E-02
(PID.TID 0000.0001) %MON dynstat_vvel_del2            =   4.6932733654404E-03
(PID.TID 0000.0001) %MON dynstat_wvel_max             =   3.5291165816488E-04
(PID.TID 0000.0001) %MON dynstat_wvel_min             =  -2.1148387504980E-04
(PID.TID 0000.0001) %MON dynstat_wvel_mean            =  -4.9700534274573E-23
(PID.TID 0000.0001) %MON dynstat_wvel_sd              =   2.5669946618725E-05
(PID.TID 0000.0001) %MON dynstat_wvel_del2            =   1.0162317604958E-05
(PID.TID 0000.0001) %MON dynstat_theta_max            =   2.9733636831453E+01
(PID.TID 0000.0001) %MON dynstat_theta_min            =  -1.9603754023161E+00
(PID.TID 0000.0001) %MON dynstat_theta_mean           =   3.5919180853697E+00
(PID.TID 0000.0001) %MON dynstat_theta_sd             =   4.3409996348835E+00
(PID.TID 0000.0001) %MON dynstat_theta_del2           =   1.3041218996124E-01
(PID.TID 0000.0001) %MON dynstat_salt_max             =   3.7390656914136E+01
(PID.TID 0000.0001) %MON dynstat_salt_min             =   2.9788328476636E+01
(PID.TID 0000.0001) %MON dynstat_salt_mean            =   3.4716183734440E+01
(PID.TID 0000.0001) %MON dynstat_salt_sd              =   2.9394886472747E-01
(PID.TID 0000.0001) %MON dynstat_salt_del2            =   2.3822184274229E-02
(PID.TID 0000.0001) %MON advcfl_uvel_max              =   3.7368861078002E-02
(PID.TID 0000.0001) %MON advcfl_vvel_max              =   1.6797923556723E-02
(PID.TID 0000.0001) %MON advcfl_wvel_max              =   1.2111797807674E-01
(PID.TID 0000.0001) %MON advcfl_W_hf_max              =   1.0807192701072E-01
(PID.TID 0000.0001) %MON pe_b_mean                    =   2.2884437034390E-04
(PID.TID 0000.0001) %MON ke_max                       =   1.9223527085903E-02
(PID.TID 0000.0001) %MON ke_mean                      =   2.6312894325623E-04
(PID.TID 0000.0001) %MON ke_vol                       =   1.3226782436723E+18
(PID.TID 0000.0001) %MON vort_r_min                   =  -1.1030553871990E-06
(PID.TID 0000.0001) %MON vort_r_max                   =   7.0359206028241E-07
(PID.TID 0000.0001) %MON vort_a_mean                  =  -2.5205768344929E-05
(PID.TID 0000.0001) %MON vort_a_sd                    =   7.3403344280126E-05
(PID.TID 0000.0001) %MON vort_p_mean                  =  -3.1758668236372E-05
(PID.TID 0000.0001) %MON vort_p_sd                    =   1.3126307689387E-04
(PID.TID 0000.0001) %MON surfExpan_theta_mean         =   1.3058321984469E-05
(PID.TID 0000.0001) %MON surfExpan_salt_mean          =   5.9275484190558E-07
(PID.TID 0000.0001) // =======================================================
(PID.TID 0000.0001) // End MONITOR dynamic field statistics
(PID.TID 0000.0001) // =======================================================
time,SST,SSS,fu,fv,Q,E-P,i0,i1,a,b =   2.8080E+06  8.9094E-02  3.4543E+01 -2.3267E-02 -3.4144E-02  2.5102E+02  0.0000E+00     1     2  5.8333E-01  4.1667E-01
time,fu0,fu1,fu =   2.8080E+06 -3.5633E-02 -1.4435E-02 -2.3267E-02  5.8333E-01  4.1667E-01
 cg2d: Sum(rhs),rhsMax =   4.42951231249822E-13  1.21609675813576E+01
(PID.TID 0000.0001)                    cg2d_init_res =    3.10461825755496E-01
(PID.TID 0000.0001)                       cg2d_iters =    24
(PID.TID 0000.0001)                         cg2d_res =    3.88300477230873E-14
(PID.TID 0000.0001) // =======================================================
(PID.TID 0000.0001) // Begin MONITOR dynamic field statistics
(PID.TID 0000.0001) // =======================================================
(PID.TID 0000.0001) %MON time_tsnumber                =                    66
(PID.TID 0000.0001) %MON time_secondsf                =   2.8512000000000E+06
(PID.TID 0000.0001) %MON dynstat_eta_max              =   1.4377616139728E+00
(PID.TID 0000.0001) %MON dynstat_eta_min              =  -1.3655109753296E+00
(PID.TID 0000.0001) %MON dynstat_eta_mean             =  -8.2413459840442E-17
(PID.TID 0000.0001) %MON dynstat_eta_sd               =   4.2424335068731E-01
(PID.TID 0000.0001) %MON dynstat_eta_del2             =   1.9832235011589E-02
(PID.TID 0000.0001) %MON dynstat_uvel_max             =   2.0054285038667E-01
(PID.TID 0000.0001) %MON dynstat_uvel_min             =  -1.7579968302963E-01
(PID.TID 0000.0001) %MON dynstat_uvel_mean            =  -7.5553350523900E-05
(PID.TID 0000.0001) %MON dynstat_uvel_sd              =   1.8811005963923E-02
(PID.TID 0000.0001) %MON dynstat_uvel_del2            =   5.1193000762109E-03
(PID.TID 0000.0001) %MON dynstat_vvel_max             =   1.7561326411686E-01
(PID.TID 0000.0001) %MON dynstat_vvel_min             =  -1.4693264556637E-01
(PID.TID 0000.0001) %MON dynstat_vvel_mean            =  -2.1633088451203E-03
(PID.TID 0000.0001) %MON dynstat_vvel_sd              =   1.5191227234715E-02
(PID.TID 0000.0001) %MON dynstat_vvel_del2            =   4.6775968431057E-03
(PID.TID 0000.0001) %MON dynstat_wvel_max             =   3.5572506289155E-04
(PID.TID 0000.0001) %MON dynstat_wvel_min             =  -2.1749036748765E-04
(PID.TID 0000.0001) %MON dynstat_wvel_mean            =   2.6798099128193E-22
(PID.TID 0000.0001) %MON dynstat_wvel_sd              =   2.5493668693147E-05
(PID.TID 0000.0001) %MON dynstat_wvel_del2            =   1.0076282602027E-05
(PID.TID 0000.0001) %MON dynstat_theta_max            =   2.9699318241629E+01
(PID.TID 0000.0001) %MON dynstat_theta_min            =  -1.9598446651295E+00
(PID.TID 0000.0001) %MON dynstat_theta_mean           =   3.5918083654277E+00
(PID.TID 0000.0001) %MON dynstat_theta_sd             =   4.3407156208663E+00
(PID.TID 0000.0001) %MON dynstat_theta_del2           =   1.3024431246988E-01
(PID.TID 0000.0001) %MON dynstat_salt_max             =   3.7390942590889E+01
(PID.TID 0000.0001) %MON dynstat_salt_min             =   2.9786797146076E+01
(PID.TID 0000.0001) %MON dynstat_salt_mean            =   3.4716173851526E+01
(PID.TID 0000.0001) %MON dynstat_salt_sd              =   2.9396613836792E-01
(PID.TID 0000.0001) %MON dynstat_salt_del2            =   2.3785220516363E-02
(PID.TID 0000.0001) %MON advcfl_uvel_max              =   3.6762448677793E-02
(PID.TID 0000.0001) %MON advcfl_vvel_max              =   1.7059420359883E-02
(PID.TID 0000.0001) %MON advcfl_wvel_max              =   1.0320075800814E-01
(PID.TID 0000.0001) %MON advcfl_W_hf_max              =   1.0377036606579E-01
(PID.TID 0000.0001) %MON pe_b_mean                    =   2.3030920095141E-04
(PID.TID 0000.0001) %MON ke_max                       =   1.8949991090680E-02
(PID.TID 0000.0001) %MON ke_mean                      =   2.6646909966352E-04
(PID.TID 0000.0001) %MON ke_vol                       =   1.3226782436723E+18
(PID.TID 0000.0001) %MON vort_r_min                   =  -1.0997215230528E-06
(PID.TID 0000.0001) %MON vort_r_max                   =   6.9886584967928E-07
(PID.TID 0000.0001) %MON vort_a_mean                  =  -2.5205768306277E-05
(PID.TID 0000.0001) %MON vort_a_sd                    =   7.3403363392907E-05
(PID.TID 0000.0001) %MON vort_p_mean                  =  -3.1758668187671E-05
(PID.TID 0000.0001) %MON vort_p_sd                    =   1.3126303649818E-04
(PID.TID 0000.0001) %MON surfExpan_theta_mean         =   1.3556356227202E-05
(PID.TID 0000.0001) %MON surfExpan_salt_mean          =   7.5965587857896E-07
(PID.TID 0000.0001) // =======================================================
(PID.TID 0000.0001) // End MONITOR dynamic field statistics
(PID.TID 0000.0001) // =======================================================
time,SST,SSS,fu,fv,Q,E-P,i0,i1,a,b =   2.8512E+06  6.4256E-02  3.4538E+01 -2.2914E-02 -3.3484E-02  2.5060E+02  0.0000E+00     1     2  6.0000E-01  4.0000E-01
time,fu0,fu1,fu =   2.8512E+06 -3.5633E-02 -1.4435E-02 -2.2914E-02  6.0000E-01  4.0000E-01
 cg2d: Sum(rhs),rhsMax =   3.13638004456607E-14  1.18939190521365E+01
(PID.TID 0000.0001)                    cg2d_init_res =    3.21493063927233E-01
(PID.TID 0000.0001)                       cg2d_iters =    24
(PID.TID 0000.0001)                         cg2d_res =    4.58718635113936E-14
(PID.TID 0000.0001) // =======================================================
(PID.TID 0000.0001) // Begin MONITOR dynamic field statistics
(PID.TID 0000.0001) // =======================================================
(PID.TID 0000.0001) %MON time_tsnumber                =                    67
(PID.TID 0000.0001) %MON time_secondsf                =   2.8944000000000E+06
(PID.TID 0000.0001) %MON dynstat_eta_max              =   1.4066956535943E+00
(PID.TID 0000.0001) %MON dynstat_eta_min              =  -1.3880859188702E+00
(PID.TID 0000.0001) %MON dynstat_eta_mean             =   3.5481494584866E-18
(PID.TID 0000.0001) %MON dynstat_eta_sd               =   4.2557304950124E-01
(PID.TID 0000.0001) %MON dynstat_eta_del2             =   1.9804765791583E-02
(PID.TID 0000.0001) %MON dynstat_uvel_max             =   1.9562543598164E-01
(PID.TID 0000.0001) %MON dynstat_uvel_min             =  -1.7278029992751E-01
(PID.TID 0000.0001) %MON dynstat_uvel_mean            =   2.2985311919005E-05
(PID.TID 0000.0001) %MON dynstat_uvel_sd              =   1.8975311228249E-02
(PID.TID 0000.0001) %MON dynstat_uvel_del2            =   5.1096805551751E-03
(PID.TID 0000.0001) %MON dynstat_vvel_max             =   1.7795511302102E-01
(PID.TID 0000.0001) %MON dynstat_vvel_min             =  -1.4879467064393E-01
(PID.TID 0000.0001) %MON dynstat_vvel_mean            =  -2.1679481002705E-03
(PID.TID 0000.0001) %MON dynstat_vvel_sd              =   1.5209786345500E-02
(PID.TID 0000.0001) %MON dynstat_vvel_del2            =   4.6646018856027E-03
(PID.TID 0000.0001) %MON dynstat_wvel_max             =   3.5840527052857E-04
(PID.TID 0000.0001) %MON dynstat_wvel_min             =  -2.2538062041502E-04
(PID.TID 0000.0001) %MON dynstat_wvel_mean            =   5.4309028233062E-22
(PID.TID 0000.0001) %MON dynstat_wvel_sd              =   2.5333196906514E-05
(PID.TID 0000.0001) %MON dynstat_wvel_del2            =   9.9988330798141E-06
(PID.TID 0000.0001) %MON dynstat_theta_max            =   2.9701264024708E+01
(PID.TID 0000.0001) %MON dynstat_theta_min            =  -1.9590768640293E+00
(PID.TID 0000.0001) %MON dynstat_theta_mean           =   3.5916935967279E+00
(PID.TID 0000.0001) %MON dynstat_theta_sd             =   4.3404166954272E+00
(PID.TID 0000.0001) %MON dynstat_theta_del2           =   1.3006776014867E-01
(PID.TID 0000.0001) %MON dynstat_salt_max             =   3.7391239057366E+01
(PID.TID 0000.0001) %MON dynstat_salt_min             =   2.9785193399526E+01
(PID.TID 0000.0001) %MON dynstat_salt_mean            =   3.4716162417978E+01
(PID.TID 0000.0001) %MON dynstat_salt_sd              =   2.9397893041370E-01
(PID.TID 0000.0001) %MON dynstat_salt_del2            =   2.3750723760484E-02
(PID.TID 0000.0001) %MON advcfl_uvel_max              =   3.5861014423997E-02
(PID.TID 0000.0001) %MON advcfl_vvel_max              =   1.7286912201552E-02
(PID.TID 0000.0001) %MON advcfl_wvel_max              =   1.1758840106840E-01
(PID.TID 0000.0001) %MON advcfl_W_hf_max              =   1.1884108650395E-01
(PID.TID 0000.0001) %MON pe_b_mean                    =   2.3175517197359E-04
(PID.TID 0000.0001) %MON ke_max                       =   1.8641792189157E-02
(PID.TID 0000.0001) %MON ke_mean                      =   2.6954967983638E-04
(PID.TID 0000.0001) %MON ke_vol                       =   1.3226782436723E+18
(PID.TID 0000.0001) %MON vort_r_min                   =  -1.0946760430796E-06
(PID.TID 0000.0001) %MON vort_r_max                   =   6.9286640186399E-07
(PID.TID 0000.0001) %MON vort_a_mean                  =  -2.5205768266577E-05
(PID.TID 0000.0001) %MON vort_a_sd                    =   7.3403381056420E-05
(PID.TID 0000.0001) %MON vort_p_mean                  =  -3.1758668137650E-05
(PID.TID 0000.0001) %MON vort_p_sd                    =   1.3126299718680E-04
(PID.TID 0000.0001) %MON surfExpan_theta_mean         =   1.4015534298085E-05
(PID.TID 0000.0001) %MON surfExpan_salt_mean          =   9.0867643124745E-07
(PID.TID 0000.0001) // =======================================================
(PID.TID 0000.0001) // End MONITOR dynamic field statistics
(PID.TID 0000.0001) // =======================================================
time,SST,SSS,fu,fv,Q,E-P,i0,i1,a,b =   2.8944E+06  3.9418E-02  3.4534E+01 -2.2561E-02 -3.2824E-02  2.5018E+02  0.0000E+00     1     2  6.1667E-01  3.8333E-01
time,fu0,fu1,fu =   2.8944E+06 -3.5633E-02 -1.4435E-02 -2.2561E-02  6.1667E-01  3.8333E-01
 cg2d: Sum(rhs),rhsMax =   1.16073817224560E-13  1.15154297935071E+01
(PID.TID 0000.0001)                    cg2d_init_res =    3.39778970194467E-01
(PID.TID 0000.0001)                       cg2d_iters =    24
(PID.TID 0000.0001)                         cg2d_res =    5.74832296071127E-14
(PID.TID 0000.0001) // =======================================================
(PID.TID 0000.0001) // Begin MONITOR dynamic field statistics
(PID.TID 0000.0001) // =======================================================
(PID.TID 0000.0001) %MON time_tsnumber                =                    68
(PID.TID 0000.0001) %MON time_secondsf                =   2.9376000000000E+06
(PID.TID 0000.0001) %MON dynstat_eta_max              =   1.3626275903415E+00
(PID.TID 0000.0001) %MON dynstat_eta_min              =  -1.4048897787063E+00
(PID.TID 0000.0001) %MON dynstat_eta_mean             =  -1.5421102116719E-17
(PID.TID 0000.0001) %MON dynstat_eta_sd               =   4.2688882098774E-01
(PID.TID 0000.0001) %MON dynstat_eta_del2             =   1.9752770786140E-02
(PID.TID 0000.0001) %MON dynstat_uvel_max             =   1.8916598551844E-01
(PID.TID 0000.0001) %MON dynstat_uvel_min             =  -1.6966049363000E-01
(PID.TID 0000.0001) %MON dynstat_uvel_mean            =   1.1487608106925E-04
(PID.TID 0000.0001) %MON dynstat_uvel_sd              =   1.9113900532500E-02
(PID.TID 0000.0001) %MON dynstat_uvel_del2            =   5.1014019259775E-03
(PID.TID 0000.0001) %MON dynstat_vvel_max             =   1.7993808618155E-01
(PID.TID 0000.0001) %MON dynstat_vvel_min             =  -1.5045538646099E-01
(PID.TID 0000.0001) %MON dynstat_vvel_mean            =  -2.1535016601899E-03
(PID.TID 0000.0001) %MON dynstat_vvel_sd              =   1.5236031189705E-02
(PID.TID 0000.0001) %MON dynstat_vvel_del2            =   4.6554262680526E-03
(PID.TID 0000.0001) %MON dynstat_wvel_max             =   3.6095554206939E-04
(PID.TID 0000.0001) %MON dynstat_wvel_min             =  -2.3300937223933E-04
(PID.TID 0000.0001) %MON dynstat_wvel_mean            =   3.1094682259544E-22
(PID.TID 0000.0001) %MON dynstat_wvel_sd              =   2.5187130309609E-05
(PID.TID 0000.0001) %MON dynstat_wvel_del2            =   9.9305891166077E-06
(PID.TID 0000.0001) %MON dynstat_theta_max            =   2.9703577836091E+01
(PID.TID 0000.0001) %MON dynstat_theta_min            =  -1.9580676689698E+00
(PID.TID 0000.0001) %MON dynstat_theta_mean           =   3.5915744293523E+00
(PID.TID 0000.0001) %MON dynstat_theta_sd             =   4.3401011483992E+00
(PID.TID 0000.0001) %MON dynstat_theta_del2           =   1.2989695156307E-01
(PID.TID 0000.0001) %MON dynstat_salt_max             =   3.7391547953465E+01
(PID.TID 0000.0001) %MON dynstat_salt_min             =   2.9783521665126E+01
(PID.TID 0000.0001) %MON dynstat_salt_mean            =   3.4716149706574E+01
(PID.TID 0000.0001) %MON dynstat_salt_sd              =   2.9398490743045E-01
(PID.TID 0000.0001) %MON dynstat_salt_del2            =   2.3712927614827E-02
(PID.TID 0000.0001) %MON advcfl_uvel_max              =   3.4676902321859E-02
(PID.TID 0000.0001) %MON advcfl_vvel_max              =   1.7479542142564E-02
(PID.TID 0000.0001) %MON advcfl_wvel_max              =   1.2992975702487E-01
(PID.TID 0000.0001) %MON advcfl_W_hf_max              =   1.3165137579797E-01
(PID.TID 0000.0001) %MON pe_b_mean                    =   2.3319045197495E-04
(PID.TID 0000.0001) %MON ke_max                       =   1.8418870611015E-02
(PID.TID 0000.0001) %MON ke_mean                      =   2.7228435382277E-04
(PID.TID 0000.0001) %MON ke_vol                       =   1.3226782436723E+18
(PID.TID 0000.0001) %MON vort_r_min                   =  -1.0879015285588E-06
(PID.TID 0000.0001) %MON vort_r_max                   =   6.8560795261696E-07
(PID.TID 0000.0001) %MON vort_a_mean                  =  -2.5205768226265E-05
(PID.TID 0000.0001) %MON vort_a_sd                    =   7.3403397301943E-05
(PID.TID 0000.0001) %MON vort_p_mean                  =  -3.1758668086858E-05
(PID.TID 0000.0001) %MON vort_p_sd                    =   1.3126295986987E-04
(PID.TID 0000.0001) %MON surfExpan_theta_mean         =   1.4408139820477E-05
(PID.TID 0000.0001) %MON surfExpan_salt_mean          =   1.0315071381995E-06
(PID.TID 0000.0001) // =======================================================
(PID.TID 0000.0001) // End MONITOR dynamic field statistics
(PID.TID 0000.0001) // =======================================================
time,SST,SSS,fu,fv,Q,E-P,i0,i1,a,b =   2.9376E+06  1.4580E-02  3.4529E+01 -2.2207E-02 -3.2163E-02  2.4975E+02  0.0000E+00     1     2  6.3333E-01  3.6667E-01
time,fu0,fu1,fu =   2.9376E+06 -3.5633E-02 -1.4435E-02 -2.2207E-02  6.3333E-01  3.6667E-01
 cg2d: Sum(rhs),rhsMax =  -1.42816314330219E-13  1.10412060552555E+01
(PID.TID 0000.0001)                    cg2d_init_res =    3.64462167187368E-01
(PID.TID 0000.0001)                       cg2d_iters =    24
(PID.TID 0000.0001)                         cg2d_res =    6.66344802431634E-14
(PID.TID 0000.0001) // =======================================================
(PID.TID 0000.0001) // Begin MONITOR dynamic field statistics
(PID.TID 0000.0001) // =======================================================
(PID.TID 0000.0001) %MON time_tsnumber                =                    69
(PID.TID 0000.0001) %MON time_secondsf                =   2.9808000000000E+06
(PID.TID 0000.0001) %MON dynstat_eta_max              =   1.3073816037490E+00
(PID.TID 0000.0001) %MON dynstat_eta_min              =  -1.4155163919769E+00
(PID.TID 0000.0001) %MON dynstat_eta_mean             =   6.8674439989386E-19
(PID.TID 0000.0001) %MON dynstat_eta_sd               =   4.2820888697113E-01
(PID.TID 0000.0001) %MON dynstat_eta_del2             =   1.9657949470799E-02
(PID.TID 0000.0001) %MON dynstat_uvel_max             =   1.8660353012966E-01
(PID.TID 0000.0001) %MON dynstat_uvel_min             =  -1.6969136090025E-01
(PID.TID 0000.0001) %MON dynstat_uvel_mean            =   2.0043449441775E-04
(PID.TID 0000.0001) %MON dynstat_uvel_sd              =   1.9222604052144E-02
(PID.TID 0000.0001) %MON dynstat_uvel_del2            =   5.0947192483564E-03
(PID.TID 0000.0001) %MON dynstat_vvel_max             =   1.8155388056147E-01
(PID.TID 0000.0001) %MON dynstat_vvel_min             =  -1.5191169363182E-01
(PID.TID 0000.0001) %MON dynstat_vvel_mean            =  -2.1218932965960E-03
(PID.TID 0000.0001) %MON dynstat_vvel_sd              =   1.5269331523777E-02
(PID.TID 0000.0001) %MON dynstat_vvel_del2            =   4.6490411067836E-03
(PID.TID 0000.0001) %MON dynstat_wvel_max             =   3.6337662380337E-04
(PID.TID 0000.0001) %MON dynstat_wvel_min             =  -2.3934972990485E-04
(PID.TID 0000.0001) %MON dynstat_wvel_mean            =  -3.7317856106362E-22
(PID.TID 0000.0001) %MON dynstat_wvel_sd              =   2.5051936952166E-05
(PID.TID 0000.0001) %MON dynstat_wvel_del2            =   9.8681679943797E-06
(PID.TID 0000.0001) %MON dynstat_theta_max            =   2.9706284654608E+01
(PID.TID 0000.0001) %MON dynstat_theta_min            =  -1.9568141952881E+00
(PID.TID 0000.0001) %MON dynstat_theta_mean           =   3.5914517924519E+00
(PID.TID 0000.0001) %MON dynstat_theta_sd             =   4.3397740530789E+00
(PID.TID 0000.0001) %MON dynstat_theta_del2           =   1.2971308553606E-01
(PID.TID 0000.0001) %MON dynstat_salt_max             =   3.7391868449068E+01
(PID.TID 0000.0001) %MON dynstat_salt_min             =   2.9781787517477E+01
(PID.TID 0000.0001) %MON dynstat_salt_mean            =   3.4716136086584E+01
(PID.TID 0000.0001) %MON dynstat_salt_sd              =   2.9398816110034E-01
(PID.TID 0000.0001) %MON dynstat_salt_del2            =   2.3679881335740E-02
(PID.TID 0000.0001) %MON advcfl_uvel_max              =   3.3226297619541E-02
(PID.TID 0000.0001) %MON advcfl_vvel_max              =   1.7636503609460E-02
(PID.TID 0000.0001) %MON advcfl_wvel_max              =   1.4049408406481E-01
(PID.TID 0000.0001) %MON advcfl_W_hf_max              =   1.4191446116936E-01
(PID.TID 0000.0001) %MON pe_b_mean                    =   2.3463486894579E-04
(PID.TID 0000.0001) %MON ke_max                       =   1.8358787683723E-02
(PID.TID 0000.0001) %MON ke_mean                      =   2.7458526851985E-04
(PID.TID 0000.0001) %MON ke_vol                       =   1.3226782436723E+18
(PID.TID 0000.0001) %MON vort_r_min                   =  -1.0794037784455E-06
(PID.TID 0000.0001) %MON vort_r_max                   =   6.7710802179166E-07
(PID.TID 0000.0001) %MON vort_a_mean                  =  -2.5205768185821E-05
(PID.TID 0000.0001) %MON vort_a_sd                    =   7.3403412186145E-05
(PID.TID 0000.0001) %MON vort_p_mean                  =  -3.1758668035899E-05
(PID.TID 0000.0001) %MON vort_p_sd                    =   1.3126292533632E-04
(PID.TID 0000.0001) %MON surfExpan_theta_mean         =   1.4756031984601E-05
(PID.TID 0000.0001) %MON surfExpan_salt_mean          =   1.1334711508194E-06
(PID.TID 0000.0001) // =======================================================
(PID.TID 0000.0001) // End MONITOR dynamic field statistics
(PID.TID 0000.0001) // =======================================================
time,SST,SSS,fu,fv,Q,E-P,i0,i1,a,b =   2.9808E+06 -1.0258E-02  3.4524E+01 -2.1854E-02 -3.1503E-02  2.4933E+02  0.0000E+00     1     2  6.5000E-01  3.5000E-01
time,fu0,fu1,fu =   2.9808E+06 -3.5633E-02 -1.4435E-02 -2.1854E-02  6.5000E-01  3.5000E-01
 cg2d: Sum(rhs),rhsMax =  -9.41330347004055E-14  1.04884337338887E+01
(PID.TID 0000.0001)                    cg2d_init_res =    3.94529851225672E-01
(PID.TID 0000.0001)                       cg2d_iters =    24
(PID.TID 0000.0001)                         cg2d_res =    7.47433895062277E-14
(PID.TID 0000.0001) // =======================================================
(PID.TID 0000.0001) // Begin MONITOR dynamic field statistics
(PID.TID 0000.0001) // =======================================================
(PID.TID 0000.0001) %MON time_tsnumber                =                    70
(PID.TID 0000.0001) %MON time_secondsf                =   3.0240000000000E+06
(PID.TID 0000.0001) %MON dynstat_eta_max              =   1.2429553428867E+00
(PID.TID 0000.0001) %MON dynstat_eta_min              =  -1.4199227422671E+00
(PID.TID 0000.0001) %MON dynstat_eta_mean             =   3.7742129573167E-18
(PID.TID 0000.0001) %MON dynstat_eta_sd               =   4.2955782729990E-01
(PID.TID 0000.0001) %MON dynstat_eta_del2             =   1.9560093417411E-02
(PID.TID 0000.0001) %MON dynstat_uvel_max             =   1.8460468439252E-01
(PID.TID 0000.0001) %MON dynstat_uvel_min             =  -1.6954833821097E-01
(PID.TID 0000.0001) %MON dynstat_uvel_mean            =   2.8004441136759E-04
(PID.TID 0000.0001) %MON dynstat_uvel_sd              =   1.9298301504344E-02
(PID.TID 0000.0001) %MON dynstat_uvel_del2            =   5.0883550438808E-03
(PID.TID 0000.0001) %MON dynstat_vvel_max             =   1.8279488125917E-01
(PID.TID 0000.0001) %MON dynstat_vvel_min             =  -1.5316325920267E-01
(PID.TID 0000.0001) %MON dynstat_vvel_mean            =  -2.0751667604090E-03
(PID.TID 0000.0001) %MON dynstat_vvel_sd              =   1.5307925906363E-02
(PID.TID 0000.0001) %MON dynstat_vvel_del2            =   4.6456649791011E-03
(PID.TID 0000.0001) %MON dynstat_wvel_max             =   3.6566803825450E-04
(PID.TID 0000.0001) %MON dynstat_wvel_min             =  -2.4433601423637E-04
(PID.TID 0000.0001) %MON dynstat_wvel_mean            =   3.8686914330643E-22
(PID.TID 0000.0001) %MON dynstat_wvel_sd              =   2.4922578130406E-05
(PID.TID 0000.0001) %MON dynstat_wvel_del2            =   9.8128647284599E-06
(PID.TID 0000.0001) %MON dynstat_theta_max            =   2.9709395210829E+01
(PID.TID 0000.0001) %MON dynstat_theta_min            =  -1.9553075529503E+00
(PID.TID 0000.0001) %MON dynstat_theta_mean           =   3.5913262058160E+00
(PID.TID 0000.0001) %MON dynstat_theta_sd             =   4.3394364148666E+00
(PID.TID 0000.0001) %MON dynstat_theta_del2           =   1.2954586256690E-01
(PID.TID 0000.0001) %MON dynstat_salt_max             =   3.7392197524851E+01
(PID.TID 0000.0001) %MON dynstat_salt_min             =   2.9779997430230E+01
(PID.TID 0000.0001) %MON dynstat_salt_mean            =   3.4716121782317E+01
(PID.TID 0000.0001) %MON dynstat_salt_sd              =   2.9398741002412E-01
(PID.TID 0000.0001) %MON dynstat_salt_del2            =   2.3646931393812E-02
(PID.TID 0000.0001) %MON advcfl_uvel_max              =   3.2140128193216E-02
(PID.TID 0000.0001) %MON advcfl_vvel_max              =   1.7757056875612E-02
(PID.TID 0000.0001) %MON advcfl_wvel_max              =   1.4825596762276E-01
(PID.TID 0000.0001) %MON advcfl_W_hf_max              =   1.4941468518093E-01
(PID.TID 0000.0001) %MON pe_b_mean                    =   2.3611548729874E-04
(PID.TID 0000.0001) %MON ke_max                       =   1.8284901669003E-02
(PID.TID 0000.0001) %MON ke_mean                      =   2.7636915867519E-04
(PID.TID 0000.0001) %MON ke_vol                       =   1.3226782436723E+18
(PID.TID 0000.0001) %MON vort_r_min                   =  -1.0692128790782E-06
(PID.TID 0000.0001) %MON vort_r_max                   =   6.6738789624664E-07
(PID.TID 0000.0001) %MON vort_a_mean                  =  -2.5205768145873E-05
(PID.TID 0000.0001) %MON vort_a_sd                    =   7.3403425782246E-05
(PID.TID 0000.0001) %MON vort_p_mean                  =  -3.1758667985566E-05
(PID.TID 0000.0001) %MON vort_p_sd                    =   1.3126289422038E-04
(PID.TID 0000.0001) %MON surfExpan_theta_mean         =   1.5039801032072E-05
(PID.TID 0000.0001) %MON surfExpan_salt_mean          =   1.2083382620296E-06
(PID.TID 0000.0001) // =======================================================
(PID.TID 0000.0001) // End MONITOR dynamic field statistics
(PID.TID 0000.0001) // =======================================================
time,SST,SSS,fu,fv,Q,E-P,i0,i1,a,b =   3.0240E+06 -3.5096E-02  3.4519E+01 -2.1501E-02 -3.0843E-02  2.4891E+02  0.0000E+00     1     2  6.6667E-01  3.3333E-01
time,fu0,fu1,fu =   3.0240E+06 -3.5633E-02 -1.4435E-02 -2.1501E-02  6.6667E-01  3.3333E-01
 cg2d: Sum(rhs),rhsMax =   2.23154827949656E-13  9.87521761848856E+00
(PID.TID 0000.0001)                    cg2d_init_res =    4.28946567385830E-01
(PID.TID 0000.0001)                       cg2d_iters =    24
(PID.TID 0000.0001)                         cg2d_res =    8.22696040073840E-14
(PID.TID 0000.0001) // =======================================================
(PID.TID 0000.0001) // Begin MONITOR dynamic field statistics
(PID.TID 0000.0001) // =======================================================
(PID.TID 0000.0001) %MON time_tsnumber                =                    71
(PID.TID 0000.0001) %MON time_secondsf                =   3.0672000000000E+06
(PID.TID 0000.0001) %MON dynstat_eta_max              =   1.1714548190675E+00
(PID.TID 0000.0001) %MON dynstat_eta_min              =  -1.4184130678167E+00
(PID.TID 0000.0001) %MON dynstat_eta_mean             =  -9.0333282698322E-17
(PID.TID 0000.0001) %MON dynstat_eta_sd               =   4.3096163354796E-01
(PID.TID 0000.0001) %MON dynstat_eta_del2             =   1.9434294842138E-02
(PID.TID 0000.0001) %MON dynstat_uvel_max             =   1.8984060755039E-01
(PID.TID 0000.0001) %MON dynstat_uvel_min             =  -1.6923699381198E-01
(PID.TID 0000.0001) %MON dynstat_uvel_mean            =   3.5412378528728E-04
(PID.TID 0000.0001) %MON dynstat_uvel_sd              =   1.9339002723806E-02
(PID.TID 0000.0001) %MON dynstat_uvel_del2            =   5.0814911751207E-03
(PID.TID 0000.0001) %MON dynstat_vvel_max             =   1.8365439571666E-01
(PID.TID 0000.0001) %MON dynstat_vvel_min             =  -1.5421197693968E-01
(PID.TID 0000.0001) %MON dynstat_vvel_mean            =  -2.0154263151025E-03
(PID.TID 0000.0001) %MON dynstat_vvel_sd              =   1.5349248979042E-02
(PID.TID 0000.0001) %MON dynstat_vvel_del2            =   4.6429280959933E-03
(PID.TID 0000.0001) %MON dynstat_wvel_max             =   3.6782925770002E-04
(PID.TID 0000.0001) %MON dynstat_wvel_min             =  -2.4791746035326E-04
(PID.TID 0000.0001) %MON dynstat_wvel_mean            =   2.5853502703452E-22
(PID.TID 0000.0001) %MON dynstat_wvel_sd              =   2.4793351875683E-05
(PID.TID 0000.0001) %MON dynstat_wvel_del2            =   9.7619505912351E-06
(PID.TID 0000.0001) %MON dynstat_theta_max            =   2.9712907423001E+01
(PID.TID 0000.0001) %MON dynstat_theta_min            =  -1.9532593172830E+00
(PID.TID 0000.0001) %MON dynstat_theta_mean           =   3.5911985799463E+00
(PID.TID 0000.0001) %MON dynstat_theta_sd             =   4.3390881607555E+00
(PID.TID 0000.0001) %MON dynstat_theta_del2           =   1.2935947540307E-01
(PID.TID 0000.0001) %MON dynstat_salt_max             =   3.7392530408672E+01
(PID.TID 0000.0001) %MON dynstat_salt_min             =   2.9778158523985E+01
(PID.TID 0000.0001) %MON dynstat_salt_mean            =   3.4716107146406E+01
(PID.TID 0000.0001) %MON dynstat_salt_sd              =   2.9398068683070E-01
(PID.TID 0000.0001) %MON dynstat_salt_del2            =   2.3608397502430E-02
(PID.TID 0000.0001) %MON advcfl_uvel_max              =   3.1539243026725E-02
(PID.TID 0000.0001) %MON advcfl_vvel_max              =   1.7840551812680E-02
(PID.TID 0000.0001) %MON advcfl_wvel_max              =   1.5307039625817E-01
(PID.TID 0000.0001) %MON advcfl_W_hf_max              =   1.5401321214792E-01
(PID.TID 0000.0001) %MON pe_b_mean                    =   2.3766127222393E-04
(PID.TID 0000.0001) %MON ke_max                       =   1.8195220992847E-02
(PID.TID 0000.0001) %MON ke_mean                      =   2.7756398496039E-04
(PID.TID 0000.0001) %MON ke_vol                       =   1.3226782436723E+18
(PID.TID 0000.0001) %MON vort_r_min                   =  -1.0573859702006E-06
(PID.TID 0000.0001) %MON vort_r_max                   =   6.5647318064542E-07
(PID.TID 0000.0001) %MON vort_a_mean                  =  -2.5205768106994E-05
(PID.TID 0000.0001) %MON vort_a_sd                    =   7.3403438174767E-05
(PID.TID 0000.0001) %MON vort_p_mean                  =  -3.1758667936579E-05
(PID.TID 0000.0001) %MON vort_p_sd                    =   1.3126286696576E-04
(PID.TID 0000.0001) %MON surfExpan_theta_mean         =   1.5258736679381E-05
(PID.TID 0000.0001) %MON surfExpan_salt_mean          =   1.2550985937338E-06
(PID.TID 0000.0001) // =======================================================
(PID.TID 0000.0001) // End MONITOR dynamic field statistics
(PID.TID 0000.0001) // =======================================================
time,SST,SSS,fu,fv,Q,E-P,i0,i1,a,b =   3.0672E+06 -5.9934E-02  3.4514E+01 -2.1147E-02 -3.0182E-02  2.4849E+02  0.0000E+00     1     2  6.8333E-01  3.1667E-01
time,fu0,fu1,fu =   3.0672E+06 -3.5633E-02 -1.4435E-02 -2.1147E-02  6.8333E-01  3.1667E-01
 cg2d: Sum(rhs),rhsMax =  -3.18217674433185E-14  9.22003939404326E+00
(PID.TID 0000.0001)                    cg2d_init_res =    4.66718525253320E-01
(PID.TID 0000.0001)                       cg2d_iters =    24
(PID.TID 0000.0001)                         cg2d_res =    8.88302502301044E-14
(PID.TID 0000.0001) // =======================================================
(PID.TID 0000.0001) // Begin MONITOR dynamic field statistics
(PID.TID 0000.0001) // =======================================================
(PID.TID 0000.0001) %MON time_tsnumber                =                    72
(PID.TID 0000.0001) %MON time_secondsf                =   3.1104000000000E+06
(PID.TID 0000.0001) %MON dynstat_eta_max              =   1.0950314166116E+00
(PID.TID 0000.0001) %MON dynstat_eta_min              =  -1.4116009622858E+00
(PID.TID 0000.0001) %MON dynstat_eta_mean             =   3.7298221370417E-17
(PID.TID 0000.0001) %MON dynstat_eta_sd               =   4.3244295965058E-01
(PID.TID 0000.0001) %MON dynstat_eta_del2             =   1.9320420778692E-02
(PID.TID 0000.0001) %MON dynstat_uvel_max             =   1.9424974475231E-01
(PID.TID 0000.0001) %MON dynstat_uvel_min             =  -1.6876427243345E-01
(PID.TID 0000.0001) %MON dynstat_uvel_mean            =   4.2311050955096E-04
(PID.TID 0000.0001) %MON dynstat_uvel_sd              =   1.9343851742269E-02
(PID.TID 0000.0001) %MON dynstat_uvel_del2            =   5.0742252166870E-03
(PID.TID 0000.0001) %MON dynstat_vvel_max             =   1.8412679365616E-01
(PID.TID 0000.0001) %MON dynstat_vvel_min             =  -1.5506146227587E-01
(PID.TID 0000.0001) %MON dynstat_vvel_mean            =  -1.9448075427115E-03
(PID.TID 0000.0001) %MON dynstat_vvel_sd              =   1.5390329039447E-02
(PID.TID 0000.0001) %MON dynstat_vvel_del2            =   4.6422526479594E-03
(PID.TID 0000.0001) %MON dynstat_wvel_max             =   3.6986019805580E-04
(PID.TID 0000.0001) %MON dynstat_wvel_min             =  -2.5005890163675E-04
(PID.TID 0000.0001) %MON dynstat_wvel_mean            =  -3.4713852338683E-22
(PID.TID 0000.0001) %MON dynstat_wvel_sd              =   2.4658896803563E-05
(PID.TID 0000.0001) %MON dynstat_wvel_del2            =   9.7098982749068E-06
(PID.TID 0000.0001) %MON dynstat_theta_max            =   2.9716810222506E+01
(PID.TID 0000.0001) %MON dynstat_theta_min            =  -1.9505732363603E+00
(PID.TID 0000.0001) %MON dynstat_theta_mean           =   3.5910695112558E+00
(PID.TID 0000.0001) %MON dynstat_theta_sd             =   4.3387369585709E+00
(PID.TID 0000.0001) %MON dynstat_theta_del2           =   1.2922994963729E-01
(PID.TID 0000.0001) %MON dynstat_salt_max             =   3.7392860999117E+01
(PID.TID 0000.0001) %MON dynstat_salt_min             =   2.9776278290763E+01
(PID.TID 0000.0001) %MON dynstat_salt_mean            =   3.4716092478169E+01
(PID.TID 0000.0001) %MON dynstat_salt_sd              =   2.9397187258668E-01
(PID.TID 0000.0001) %MON dynstat_salt_del2            =   2.3577473792463E-02
(PID.TID 0000.0001) %MON advcfl_uvel_max              =   3.1063104680750E-02
(PID.TID 0000.0001) %MON advcfl_vvel_max              =   1.7886441484327E-02
(PID.TID 0000.0001) %MON advcfl_wvel_max              =   1.5487257092026E-01
(PID.TID 0000.0001) %MON advcfl_W_hf_max              =   1.5565013034518E-01
(PID.TID 0000.0001) %MON pe_b_mean                    =   2.3929788610571E-04
(PID.TID 0000.0001) %MON ke_max                       =   1.8087722208630E-02
(PID.TID 0000.0001) %MON ke_mean                      =   2.7811492672832E-04
(PID.TID 0000.0001) %MON ke_vol                       =   1.3226782436723E+18
(PID.TID 0000.0001) %MON vort_r_min                   =  -1.0440079158745E-06
(PID.TID 0000.0001) %MON vort_r_max                   =   6.4439430073579E-07
(PID.TID 0000.0001) %MON vort_a_mean                  =  -2.5205768069785E-05
(PID.TID 0000.0001) %MON vort_a_sd                    =   7.3403449454566E-05
(PID.TID 0000.0001) %MON vort_p_mean                  =  -3.1758667889697E-05
(PID.TID 0000.0001) %MON vort_p_sd                    =   1.3126284389195E-04
(PID.TID 0000.0001) %MON surfExpan_theta_mean         =   1.5411648485875E-05
(PID.TID 0000.0001) %MON surfExpan_salt_mean          =   1.2733233113790E-06
(PID.TID 0000.0001) // =======================================================
(PID.TID 0000.0001) // End MONITOR dynamic field statistics
(PID.TID 0000.0001) // =======================================================
time,SST,SSS,fu,fv,Q,E-P,i0,i1,a,b =   3.1104E+06 -8.4772E-02  3.4509E+01 -2.0794E-02 -2.9522E-02  2.4807E+02  0.0000E+00     1     2  7.0000E-01  3.0000E-01
time,fu0,fu1,fu =   3.1104E+06 -3.5633E-02 -1.4435E-02 -2.0794E-02  7.0000E-01  3.0000E-01
 cg2d: Sum(rhs),rhsMax =  -3.88786225435922E-13  8.54125117040081E+00
(PID.TID 0000.0001)                    cg2d_init_res =    5.06880882606033E-01
(PID.TID 0000.0001)                       cg2d_iters =    24
(PID.TID 0000.0001)                         cg2d_res =    9.00636611419659E-14
(PID.TID 0000.0001) // =======================================================
(PID.TID 0000.0001) // Begin MONITOR dynamic field statistics
(PID.TID 0000.0001) // =======================================================
(PID.TID 0000.0001) %MON time_tsnumber                =                    73
(PID.TID 0000.0001) %MON time_secondsf                =   3.1536000000000E+06
(PID.TID 0000.0001) %MON dynstat_eta_max              =   1.0158229164879E+00
(PID.TID 0000.0001) %MON dynstat_eta_min              =  -1.4003545386460E+00
(PID.TID 0000.0001) %MON dynstat_eta_mean             =  -3.7140913843127E-17
(PID.TID 0000.0001) %MON dynstat_eta_sd               =   4.3401688950015E-01
(PID.TID 0000.0001) %MON dynstat_eta_del2             =   1.9231601047148E-02
(PID.TID 0000.0001) %MON dynstat_uvel_max             =   1.9748084539941E-01
(PID.TID 0000.0001) %MON dynstat_uvel_min             =  -1.6813811263330E-01
(PID.TID 0000.0001) %MON dynstat_uvel_mean            =   4.8739728784387E-04
(PID.TID 0000.0001) %MON dynstat_uvel_sd              =   1.9313090362378E-02
(PID.TID 0000.0001) %MON dynstat_uvel_del2            =   5.0662642366558E-03
(PID.TID 0000.0001) %MON dynstat_vvel_max             =   1.8420768455077E-01
(PID.TID 0000.0001) %MON dynstat_vvel_min             =  -1.5571662511710E-01
(PID.TID 0000.0001) %MON dynstat_vvel_mean            =  -1.8653737811156E-03
(PID.TID 0000.0001) %MON dynstat_vvel_sd              =   1.5428185370164E-02
(PID.TID 0000.0001) %MON dynstat_vvel_del2            =   4.6413181182753E-03
(PID.TID 0000.0001) %MON dynstat_wvel_max             =   3.7176170766416E-04
(PID.TID 0000.0001) %MON dynstat_wvel_min             =  -2.5074138215602E-04
(PID.TID 0000.0001) %MON dynstat_wvel_mean            =  -2.4537472113752E-22
(PID.TID 0000.0001) %MON dynstat_wvel_sd              =   2.4514859648974E-05
(PID.TID 0000.0001) %MON dynstat_wvel_del2            =   9.6542561624219E-06
(PID.TID 0000.0001) %MON dynstat_theta_max            =   2.9721156213350E+01
(PID.TID 0000.0001) %MON dynstat_theta_min            =  -1.9473554112603E+00
(PID.TID 0000.0001) %MON dynstat_theta_mean           =   3.5909399180625E+00
(PID.TID 0000.0001) %MON dynstat_theta_sd             =   4.3383844121043E+00
(PID.TID 0000.0001) %MON dynstat_theta_del2           =   1.2911267401505E-01
(PID.TID 0000.0001) %MON dynstat_salt_max             =   3.7393182400274E+01
(PID.TID 0000.0001) %MON dynstat_salt_min             =   2.9774364316864E+01
(PID.TID 0000.0001) %MON dynstat_salt_mean            =   3.4716078102223E+01
(PID.TID 0000.0001) %MON dynstat_salt_sd              =   2.9395991281689E-01
(PID.TID 0000.0001) %MON dynstat_salt_del2            =   2.3550637415387E-02
(PID.TID 0000.0001) %MON advcfl_uvel_max              =   3.1054878097922E-02
(PID.TID 0000.0001) %MON advcfl_vvel_max              =   1.7894299386071E-02
(PID.TID 0000.0001) %MON advcfl_wvel_max              =   1.5367699350676E-01
(PID.TID 0000.0001) %MON advcfl_W_hf_max              =   1.5434346372790E-01
(PID.TID 0000.0001) %MON pe_b_mean                    =   2.4104296479412E-04
(PID.TID 0000.0001) %MON ke_max                       =   1.8253805112668E-02
(PID.TID 0000.0001) %MON ke_mean                      =   2.7798917067586E-04
(PID.TID 0000.0001) %MON ke_vol                       =   1.3226782436723E+18
(PID.TID 0000.0001) %MON vort_r_min                   =  -1.0291910500414E-06
(PID.TID 0000.0001) %MON vort_r_max                   =   6.5110084516262E-07
(PID.TID 0000.0001) %MON vort_a_mean                  =  -2.5205768034849E-05
(PID.TID 0000.0001) %MON vort_a_sd                    =   7.3403459705052E-05
(PID.TID 0000.0001) %MON vort_p_mean                  =  -3.1758667845679E-05
(PID.TID 0000.0001) %MON vort_p_sd                    =   1.3126282502038E-04
(PID.TID 0000.0001) %MON surfExpan_theta_mean         =   1.5502808173429E-05
(PID.TID 0000.0001) %MON surfExpan_salt_mean          =   1.2639703331007E-06
(PID.TID 0000.0001) // =======================================================
(PID.TID 0000.0001) // End MONITOR dynamic field statistics
(PID.TID 0000.0001) // =======================================================
time,SST,SSS,fu,fv,Q,E-P,i0,i1,a,b =   3.1536E+06 -1.0961E-01  3.4504E+01 -2.0441E-02 -2.8862E-02  2.4765E+02  0.0000E+00     1     2  7.1667E-01  2.8333E-01
time,fu0,fu1,fu =   3.1536E+06 -3.5633E-02 -1.4435E-02 -2.0441E-02  7.1667E-01  2.8333E-01
 cg2d: Sum(rhs),rhsMax =   4.48446835221716E-13  7.85660875145875E+00
(PID.TID 0000.0001)                    cg2d_init_res =    5.48481170074057E-01
(PID.TID 0000.0001)                       cg2d_iters =    24
(PID.TID 0000.0001)                         cg2d_res =    4.81060077093608E-14
(PID.TID 0000.0001) // =======================================================
(PID.TID 0000.0001) // Begin MONITOR dynamic field statistics
(PID.TID 0000.0001) // =======================================================
(PID.TID 0000.0001) %MON time_tsnumber                =                    74
(PID.TID 0000.0001) %MON time_secondsf                =   3.1968000000000E+06
(PID.TID 0000.0001) %MON dynstat_eta_max              =   9.3589916715424E-01
(PID.TID 0000.0001) %MON dynstat_eta_min              =  -1.3857272973903E+00
(PID.TID 0000.0001) %MON dynstat_eta_mean             =  -8.6981655370328E-17
(PID.TID 0000.0001) %MON dynstat_eta_sd               =   4.3568829238764E-01
(PID.TID 0000.0001) %MON dynstat_eta_del2             =   1.9173078885193E-02
(PID.TID 0000.0001) %MON dynstat_uvel_max             =   1.9950835806821E-01
(PID.TID 0000.0001) %MON dynstat_uvel_min             =  -1.6736723426864E-01
(PID.TID 0000.0001) %MON dynstat_uvel_mean            =   5.4734891882967E-04
(PID.TID 0000.0001) %MON dynstat_uvel_sd              =   1.9247952373606E-02
(PID.TID 0000.0001) %MON dynstat_uvel_del2            =   5.0566207919900E-03
(PID.TID 0000.0001) %MON dynstat_vvel_max             =   1.8389406047561E-01
(PID.TID 0000.0001) %MON dynstat_vvel_min             =  -1.5618331886484E-01
(PID.TID 0000.0001) %MON dynstat_vvel_mean            =  -1.7791093166785E-03
(PID.TID 0000.0001) %MON dynstat_vvel_sd              =   1.5460171201546E-02
(PID.TID 0000.0001) %MON dynstat_vvel_del2            =   4.6386791751605E-03
(PID.TID 0000.0001) %MON dynstat_wvel_max             =   3.7353598816035E-04
(PID.TID 0000.0001) %MON dynstat_wvel_min             =  -2.4996266583930E-04
(PID.TID 0000.0001) %MON dynstat_wvel_mean            =  -3.6086846686767E-23
(PID.TID 0000.0001) %MON dynstat_wvel_sd              =   2.4358549875375E-05
(PID.TID 0000.0001) %MON dynstat_wvel_del2            =   9.5932546300540E-06
(PID.TID 0000.0001) %MON dynstat_theta_max            =   2.9726041907497E+01
(PID.TID 0000.0001) %MON dynstat_theta_min            =  -1.9436340944624E+00
(PID.TID 0000.0001) %MON dynstat_theta_mean           =   3.5908104269496E+00
(PID.TID 0000.0001) %MON dynstat_theta_sd             =   4.3380342799715E+00
(PID.TID 0000.0001) %MON dynstat_theta_del2           =   1.2898979782706E-01
(PID.TID 0000.0001) %MON dynstat_salt_max             =   3.7393487453828E+01
(PID.TID 0000.0001) %MON dynstat_salt_min             =   2.9772424019166E+01
(PID.TID 0000.0001) %MON dynstat_salt_mean            =   3.4716064291470E+01
(PID.TID 0000.0001) %MON dynstat_salt_sd              =   2.9394548275396E-01
(PID.TID 0000.0001) %MON dynstat_salt_del2            =   2.3523230119884E-02
(PID.TID 0000.0001) %MON advcfl_uvel_max              =   3.1036231727382E-02
(PID.TID 0000.0001) %MON advcfl_vvel_max              =   1.7863833322132E-02
(PID.TID 0000.0001) %MON advcfl_wvel_max              =   1.4957408060983E-01
(PID.TID 0000.0001) %MON advcfl_W_hf_max              =   1.5018575658258E-01
(PID.TID 0000.0001) %MON pe_b_mean                    =   2.4290305671302E-04
(PID.TID 0000.0001) %MON ke_max                       =   1.8746541433838E-02
(PID.TID 0000.0001) %MON ke_mean                      =   2.7717861908871E-04
(PID.TID 0000.0001) %MON ke_vol                       =   1.3226782436723E+18
(PID.TID 0000.0001) %MON vort_r_min                   =  -1.0130739725216E-06
(PID.TID 0000.0001) %MON vort_r_max                   =   6.5942488062971E-07
(PID.TID 0000.0001) %MON vort_a_mean                  =  -2.5205768002712E-05
(PID.TID 0000.0001) %MON vort_a_sd                    =   7.3403469005229E-05
(PID.TID 0000.0001) %MON vort_p_mean                  =  -3.1758667805187E-05
(PID.TID 0000.0001) %MON vort_p_sd                    =   1.3126281024389E-04
(PID.TID 0000.0001) %MON surfExpan_theta_mean         =   1.5535583932280E-05
(PID.TID 0000.0001) %MON surfExpan_salt_mean          =   1.2286729006231E-06
(PID.TID 0000.0001) // =======================================================
(PID.TID 0000.0001) // End MONITOR dynamic field statistics
(PID.TID 0000.0001) // =======================================================
time,SST,SSS,fu,fv,Q,E-P,i0,i1,a,b =   3.1968E+06 -1.3445E-01  3.4499E+01 -2.0088E-02 -2.8201E-02  2.4722E+02  0.0000E+00     1     2  7.3333E-01  2.6667E-01
time,fu0,fu1,fu =   3.1968E+06 -3.5633E-02 -1.4435E-02 -2.0088E-02  7.3333E-01  2.6667E-01
 cg2d: Sum(rhs),rhsMax =   3.78030939884866E-13  7.50280922718734E+00
(PID.TID 0000.0001)                    cg2d_init_res =    5.65336949939099E-01
(PID.TID 0000.0001)                       cg2d_iters =    24
(PID.TID 0000.0001)                         cg2d_res =    9.43481579573662E-14
(PID.TID 0000.0001) // =======================================================
(PID.TID 0000.0001) // Begin MONITOR dynamic field statistics
(PID.TID 0000.0001) // =======================================================
(PID.TID 0000.0001) %MON time_tsnumber                =                    75
(PID.TID 0000.0001) %MON time_secondsf                =   3.2400000000000E+06
(PID.TID 0000.0001) %MON dynstat_eta_max              =   9.2083889099518E-01
(PID.TID 0000.0001) %MON dynstat_eta_min              =  -1.3688834081211E+00
(PID.TID 0000.0001) %MON dynstat_eta_mean             =   1.5385836266177E-17
(PID.TID 0000.0001) %MON dynstat_eta_sd               =   4.3745073367825E-01
(PID.TID 0000.0001) %MON dynstat_eta_del2             =   1.9116822536654E-02
(PID.TID 0000.0001) %MON dynstat_uvel_max             =   2.0032288577370E-01
(PID.TID 0000.0001) %MON dynstat_uvel_min             =  -1.6646055584350E-01
(PID.TID 0000.0001) %MON dynstat_uvel_mean            =   6.0327265396342E-04
(PID.TID 0000.0001) %MON dynstat_uvel_sd              =   1.9150530081801E-02
(PID.TID 0000.0001) %MON dynstat_uvel_del2            =   5.0458277372053E-03
(PID.TID 0000.0001) %MON dynstat_vvel_max             =   1.8318439764256E-01
(PID.TID 0000.0001) %MON dynstat_vvel_min             =  -1.5646802809315E-01
(PID.TID 0000.0001) %MON dynstat_vvel_mean            =  -1.6878587406770E-03
(PID.TID 0000.0001) %MON dynstat_vvel_sd              =   1.5484227346520E-02
(PID.TID 0000.0001) %MON dynstat_vvel_del2            =   4.6340323749599E-03
(PID.TID 0000.0001) %MON dynstat_wvel_max             =   3.7518688383755E-04
(PID.TID 0000.0001) %MON dynstat_wvel_min             =  -2.4854277124655E-04
(PID.TID 0000.0001) %MON dynstat_wvel_mean            =  -3.1139016430763E-22
(PID.TID 0000.0001) %MON dynstat_wvel_sd              =   2.4189335261240E-05
(PID.TID 0000.0001) %MON dynstat_wvel_del2            =   9.5339183859033E-06
(PID.TID 0000.0001) %MON dynstat_theta_max            =   2.9731308777395E+01
(PID.TID 0000.0001) %MON dynstat_theta_min            =  -1.9394434137149E+00
(PID.TID 0000.0001) %MON dynstat_theta_mean           =   3.5906816719130E+00
(PID.TID 0000.0001) %MON dynstat_theta_sd             =   4.3376895939369E+00
(PID.TID 0000.0001) %MON dynstat_theta_del2           =   1.2888888532118E-01
(PID.TID 0000.0001) %MON dynstat_salt_max             =   3.7393769237129E+01
(PID.TID 0000.0001) %MON dynstat_salt_min             =   2.9770464408378E+01
(PID.TID 0000.0001) %MON dynstat_salt_mean            =   3.4716051294228E+01
(PID.TID 0000.0001) %MON dynstat_salt_sd              =   2.9392908781005E-01
(PID.TID 0000.0001) %MON dynstat_salt_del2            =   2.3497158477090E-02
(PID.TID 0000.0001) %MON advcfl_uvel_max              =   3.1008607990883E-02
(PID.TID 0000.0001) %MON advcfl_vvel_max              =   1.7794895268713E-02
(PID.TID 0000.0001) %MON advcfl_wvel_max              =   1.4272415145732E-01
(PID.TID 0000.0001) %MON advcfl_W_hf_max              =   1.4333808285228E-01
(PID.TID 0000.0001) %MON pe_b_mean                    =   2.4487220879573E-04
(PID.TID 0000.0001) %MON ke_max                       =   1.9084217917436E-02
(PID.TID 0000.0001) %MON ke_mean                      =   2.7570048588925E-04
(PID.TID 0000.0001) %MON ke_vol                       =   1.3226782436723E+18
(PID.TID 0000.0001) %MON vort_r_min                   =  -9.9581825338989E-07
(PID.TID 0000.0001) %MON vort_r_max                   =   6.6786205962811E-07
(PID.TID 0000.0001) %MON vort_a_mean                  =  -2.5205767974028E-05
(PID.TID 0000.0001) %MON vort_a_sd                    =   7.3403477420027E-05
(PID.TID 0000.0001) %MON vort_p_mean                  =  -3.1758667769045E-05
(PID.TID 0000.0001) %MON vort_p_sd                    =   1.3126279929847E-04
(PID.TID 0000.0001) %MON surfExpan_theta_mean         =   1.5514110572687E-05
(PID.TID 0000.0001) %MON surfExpan_salt_mean          =   1.1696541083047E-06
(PID.TID 0000.0001) // =======================================================
(PID.TID 0000.0001) // End MONITOR dynamic field statistics
(PID.TID 0000.0001) // =======================================================
time,SST,SSS,fu,fv,Q,E-P,i0,i1,a,b =   3.2400E+06 -1.5929E-01  3.4494E+01 -1.9734E-02 -2.7541E-02  2.4680E+02  0.0000E+00     1     2  7.5000E-01  2.5000E-01
time,fu0,fu1,fu =   3.2400E+06 -3.5633E-02 -1.4435E-02 -1.9734E-02  7.5000E-01  2.5000E-01
 cg2d: Sum(rhs),rhsMax =  -8.74578187648467E-13  7.40659063233431E+00
(PID.TID 0000.0001)                    cg2d_init_res =    5.57569703366644E-01
(PID.TID 0000.0001)                       cg2d_iters =    25
(PID.TID 0000.0001)                         cg2d_res =    2.46976426337892E-14
(PID.TID 0000.0001) // =======================================================
(PID.TID 0000.0001) // Begin MONITOR dynamic field statistics
(PID.TID 0000.0001) // =======================================================
(PID.TID 0000.0001) %MON time_tsnumber                =                    76
(PID.TID 0000.0001) %MON time_secondsf                =   3.2832000000000E+06
(PID.TID 0000.0001) %MON dynstat_eta_max              =   9.0917163635433E-01
(PID.TID 0000.0001) %MON dynstat_eta_min              =  -1.3510212882969E+00
(PID.TID 0000.0001) %MON dynstat_eta_mean             =   6.6513833159058E-17
(PID.TID 0000.0001) %MON dynstat_eta_sd               =   4.3928699613699E-01
(PID.TID 0000.0001) %MON dynstat_eta_del2             =   1.9052190674597E-02
(PID.TID 0000.0001) %MON dynstat_uvel_max             =   2.0288053192965E-01
(PID.TID 0000.0001) %MON dynstat_uvel_min             =  -1.6542715380207E-01
(PID.TID 0000.0001) %MON dynstat_uvel_mean            =   6.5539460570730E-04
(PID.TID 0000.0001) %MON dynstat_uvel_sd              =   1.9023604268995E-02
(PID.TID 0000.0001) %MON dynstat_uvel_del2            =   5.0329921045545E-03
(PID.TID 0000.0001) %MON dynstat_vvel_max             =   1.8207880525253E-01
(PID.TID 0000.0001) %MON dynstat_vvel_min             =  -1.5657758741988E-01
(PID.TID 0000.0001) %MON dynstat_vvel_mean            =  -1.5932920991970E-03
(PID.TID 0000.0001) %MON dynstat_vvel_sd              =   1.5499024265033E-02
(PID.TID 0000.0001) %MON dynstat_vvel_del2            =   4.6275083628172E-03
(PID.TID 0000.0001) %MON dynstat_wvel_max             =   3.7671996526581E-04
(PID.TID 0000.0001) %MON dynstat_wvel_min             =  -2.4904222816367E-04
(PID.TID 0000.0001) %MON dynstat_wvel_mean            =   1.4530809438619E-22
(PID.TID 0000.0001) %MON dynstat_wvel_sd              =   2.4008290989198E-05
(PID.TID 0000.0001) %MON dynstat_wvel_del2            =   9.4737044802686E-06
(PID.TID 0000.0001) %MON dynstat_theta_max            =   2.9736868462222E+01
(PID.TID 0000.0001) %MON dynstat_theta_min            =  -1.9348239557108E+00
(PID.TID 0000.0001) %MON dynstat_theta_mean           =   3.5905542034855E+00
(PID.TID 0000.0001) %MON dynstat_theta_sd             =   4.3373532508515E+00
(PID.TID 0000.0001) %MON dynstat_theta_del2           =   1.2883322178543E-01
(PID.TID 0000.0001) %MON dynstat_salt_max             =   3.7393953850710E+01
(PID.TID 0000.0001) %MON dynstat_salt_min             =   2.9768491890363E+01
(PID.TID 0000.0001) %MON dynstat_salt_mean            =   3.4716039321154E+01
(PID.TID 0000.0001) %MON dynstat_salt_sd              =   2.9391150500754E-01
(PID.TID 0000.0001) %MON dynstat_salt_del2            =   2.3472688628302E-02
(PID.TID 0000.0001) %MON advcfl_uvel_max              =   3.0973447933016E-02
(PID.TID 0000.0001) %MON advcfl_vvel_max              =   1.7687495833806E-02
(PID.TID 0000.0001) %MON advcfl_wvel_max              =   1.4948248482805E-01
(PID.TID 0000.0001) %MON advcfl_W_hf_max              =   1.4183750559993E-01
(PID.TID 0000.0001) %MON pe_b_mean                    =   2.4693229622538E-04
(PID.TID 0000.0001) %MON ke_max                       =   1.9260777921083E-02
(PID.TID 0000.0001) %MON ke_mean                      =   2.7359552513678E-04
(PID.TID 0000.0001) %MON ke_vol                       =   1.3226782436723E+18
(PID.TID 0000.0001) %MON vort_r_min                   =  -9.7760246295751E-07
(PID.TID 0000.0001) %MON vort_r_max                   =   6.7626115787713E-07
(PID.TID 0000.0001) %MON vort_a_mean                  =  -2.5205767949217E-05
(PID.TID 0000.0001) %MON vort_a_sd                    =   7.3403484999771E-05
(PID.TID 0000.0001) %MON vort_p_mean                  =  -3.1758667737784E-05
(PID.TID 0000.0001) %MON vort_p_sd                    =   1.3126279165239E-04
(PID.TID 0000.0001) %MON surfExpan_theta_mean         =   1.5445178279783E-05
(PID.TID 0000.0001) %MON surfExpan_salt_mean          =   1.0906360556773E-06
(PID.TID 0000.0001) // =======================================================
(PID.TID 0000.0001) // End MONITOR dynamic field statistics
(PID.TID 0000.0001) // =======================================================
time,SST,SSS,fu,fv,Q,E-P,i0,i1,a,b =   3.2832E+06 -1.8412E-01  3.4490E+01 -1.9381E-02 -2.6880E-02  2.4638E+02  0.0000E+00     1     2  7.6667E-01  2.3333E-01
time,fu0,fu1,fu =   3.2832E+06 -3.5633E-02 -1.4435E-02 -1.9381E-02  7.6667E-01  2.3333E-01
 cg2d: Sum(rhs),rhsMax =  -8.98586760555986E-14  8.12844776506082E+00
(PID.TID 0000.0001)                    cg2d_init_res =    4.89632226905567E-01
(PID.TID 0000.0001)                       cg2d_iters =    24
(PID.TID 0000.0001)                         cg2d_res =    9.78425682195886E-14
(PID.TID 0000.0001) // =======================================================
(PID.TID 0000.0001) // Begin MONITOR dynamic field statistics
(PID.TID 0000.0001) // =======================================================
(PID.TID 0000.0001) %MON time_tsnumber                =                    77
(PID.TID 0000.0001) %MON time_secondsf                =   3.3264000000000E+06
(PID.TID 0000.0001) %MON dynstat_eta_max              =   8.9505842488443E-01
(PID.TID 0000.0001) %MON dynstat_eta_min              =  -1.3333011142584E+00
(PID.TID 0000.0001) %MON dynstat_eta_mean             =  -7.3254692515588E-17
(PID.TID 0000.0001) %MON dynstat_eta_sd               =   4.4117101920771E-01
(PID.TID 0000.0001) %MON dynstat_eta_del2             =   1.9026924944842E-02
(PID.TID 0000.0001) %MON dynstat_uvel_max             =   2.0684506182906E-01
(PID.TID 0000.0001) %MON dynstat_uvel_min             =  -1.6427585153907E-01
(PID.TID 0000.0001) %MON dynstat_uvel_mean            =   7.0387398739505E-04
(PID.TID 0000.0001) %MON dynstat_uvel_sd              =   1.8870469890117E-02
(PID.TID 0000.0001) %MON dynstat_uvel_del2            =   5.0190582246978E-03
(PID.TID 0000.0001) %MON dynstat_vvel_max             =   1.8057911919551E-01
(PID.TID 0000.0001) %MON dynstat_vvel_min             =  -1.5651899881095E-01
(PID.TID 0000.0001) %MON dynstat_vvel_mean            =  -1.4968668040882E-03
(PID.TID 0000.0001) %MON dynstat_vvel_sd              =   1.5504003968328E-02
(PID.TID 0000.0001) %MON dynstat_vvel_del2            =   4.6180925996860E-03
(PID.TID 0000.0001) %MON dynstat_wvel_max             =   3.7814228885468E-04
(PID.TID 0000.0001) %MON dynstat_wvel_min             =  -2.4898929671735E-04
(PID.TID 0000.0001) %MON dynstat_wvel_mean            =  -8.4549540828394E-23
(PID.TID 0000.0001) %MON dynstat_wvel_sd              =   2.3818377479174E-05
(PID.TID 0000.0001) %MON dynstat_wvel_del2            =   9.4083149905802E-06
(PID.TID 0000.0001) %MON dynstat_theta_max            =   2.9742625447118E+01
(PID.TID 0000.0001) %MON dynstat_theta_min            =  -1.9305256151656E+00
(PID.TID 0000.0001) %MON dynstat_theta_mean           =   3.5904285083332E+00
(PID.TID 0000.0001) %MON dynstat_theta_sd             =   4.3370271825913E+00
(PID.TID 0000.0001) %MON dynstat_theta_del2           =   1.2877894135311E-01
(PID.TID 0000.0001) %MON dynstat_salt_max             =   3.7394128529416E+01
(PID.TID 0000.0001) %MON dynstat_salt_min             =   2.9766512113688E+01
(PID.TID 0000.0001) %MON dynstat_salt_mean            =   3.4716028531998E+01
(PID.TID 0000.0001) %MON dynstat_salt_sd              =   2.9389299189554E-01
(PID.TID 0000.0001) %MON dynstat_salt_del2            =   2.3452086801478E-02
(PID.TID 0000.0001) %MON advcfl_uvel_max              =   3.0932117452916E-02
(PID.TID 0000.0001) %MON advcfl_vvel_max              =   1.7541813359403E-02
(PID.TID 0000.0001) %MON advcfl_wvel_max              =   1.5284095648515E-01
(PID.TID 0000.0001) %MON advcfl_W_hf_max              =   1.4485349706870E-01
(PID.TID 0000.0001) %MON pe_b_mean                    =   2.4905493487757E-04
(PID.TID 0000.0001) %MON ke_max                       =   1.9356942023328E-02
(PID.TID 0000.0001) %MON ke_mean                      =   2.7092466324849E-04
(PID.TID 0000.0001) %MON ke_vol                       =   1.3226782436723E+18
(PID.TID 0000.0001) %MON vort_r_min                   =  -9.5861657725640E-07
(PID.TID 0000.0001) %MON vort_r_max                   =   6.8446295234260E-07
(PID.TID 0000.0001) %MON vort_a_mean                  =  -2.5205767928655E-05
(PID.TID 0000.0001) %MON vort_a_sd                    =   7.3403491778400E-05
(PID.TID 0000.0001) %MON vort_p_mean                  =  -3.1758667711876E-05
(PID.TID 0000.0001) %MON vort_p_sd                    =   1.3126278669254E-04
(PID.TID 0000.0001) %MON surfExpan_theta_mean         =   1.5331040881220E-05
(PID.TID 0000.0001) %MON surfExpan_salt_mean          =   9.9486204021562E-07
(PID.TID 0000.0001) // =======================================================
(PID.TID 0000.0001) // End MONITOR dynamic field statistics
(PID.TID 0000.0001) // =======================================================
time,SST,SSS,fu,fv,Q,E-P,i0,i1,a,b =   3.3264E+06 -2.0896E-01  3.4485E+01 -1.9028E-02 -2.6220E-02  2.4596E+02  0.0000E+00     1     2  7.8333E-01  2.1667E-01
time,fu0,fu1,fu =   3.3264E+06 -3.5633E-02 -1.4435E-02 -1.9028E-02  7.8333E-01  2.1667E-01
 cg2d: Sum(rhs),rhsMax =  -1.04513619980651E-13  8.77420727303612E+00
(PID.TID 0000.0001)                    cg2d_init_res =    4.33287773360027E-01
(PID.TID 0000.0001)                       cg2d_iters =    24
(PID.TID 0000.0001)                         cg2d_res =    8.72298380906462E-14
(PID.TID 0000.0001) // =======================================================
(PID.TID 0000.0001) // Begin MONITOR dynamic field statistics
(PID.TID 0000.0001) // =======================================================
(PID.TID 0000.0001) %MON time_tsnumber                =                    78
(PID.TID 0000.0001) %MON time_secondsf                =   3.3696000000000E+06
(PID.TID 0000.0001) %MON dynstat_eta_max              =   9.6652352508847E-01
(PID.TID 0000.0001) %MON dynstat_eta_min              =  -1.3167805893113E+00
(PID.TID 0000.0001) %MON dynstat_eta_mean             =   8.0900165159020E-17
(PID.TID 0000.0001) %MON dynstat_eta_sd               =   4.4307082124077E-01
(PID.TID 0000.0001) %MON dynstat_eta_del2             =   1.9015013532655E-02
(PID.TID 0000.0001) %MON dynstat_uvel_max             =   2.1007661718000E-01
(PID.TID 0000.0001) %MON dynstat_uvel_min             =  -1.6301500510924E-01
(PID.TID 0000.0001) %MON dynstat_uvel_mean            =   7.4880298933398E-04
(PID.TID 0000.0001) %MON dynstat_uvel_sd              =   1.8694753138382E-02
(PID.TID 0000.0001) %MON dynstat_uvel_del2            =   5.0044115884847E-03
(PID.TID 0000.0001) %MON dynstat_vvel_max             =   1.7868895367901E-01
(PID.TID 0000.0001) %MON dynstat_vvel_min             =  -1.5629922946015E-01
(PID.TID 0000.0001) %MON dynstat_vvel_mean            =  -1.3998100448142E-03
(PID.TID 0000.0001) %MON dynstat_vvel_sd              =   1.5499328216529E-02
(PID.TID 0000.0001) %MON dynstat_vvel_del2            =   4.6065307119052E-03
(PID.TID 0000.0001) %MON dynstat_wvel_max             =   3.7946198276674E-04
(PID.TID 0000.0001) %MON dynstat_wvel_min             =  -2.4841895865349E-04
(PID.TID 0000.0001) %MON dynstat_wvel_mean            =   2.0323091405718E-22
(PID.TID 0000.0001) %MON dynstat_wvel_sd              =   2.3623657782722E-05
(PID.TID 0000.0001) %MON dynstat_wvel_del2            =   9.3412283128589E-06
(PID.TID 0000.0001) %MON dynstat_theta_max            =   2.9748481025946E+01
(PID.TID 0000.0001) %MON dynstat_theta_min            =  -1.9305107036469E+00
(PID.TID 0000.0001) %MON dynstat_theta_mean           =   3.5903050568087E+00
(PID.TID 0000.0001) %MON dynstat_theta_sd             =   4.3367135625285E+00
(PID.TID 0000.0001) %MON dynstat_theta_del2           =   1.2873693648101E-01
(PID.TID 0000.0001) %MON dynstat_salt_max             =   3.7394263814827E+01
(PID.TID 0000.0001) %MON dynstat_salt_min             =   2.9764529866144E+01
(PID.TID 0000.0001) %MON dynstat_salt_mean            =   3.4716019047937E+01
(PID.TID 0000.0001) %MON dynstat_salt_sd              =   2.9387391116792E-01
(PID.TID 0000.0001) %MON dynstat_salt_del2            =   2.3429190654968E-02
(PID.TID 0000.0001) %MON advcfl_uvel_max              =   3.0885853598428E-02
(PID.TID 0000.0001) %MON advcfl_vvel_max              =   1.7358198936781E-02
(PID.TID 0000.0001) %MON advcfl_wvel_max              =   1.5144801447518E-01
(PID.TID 0000.0001) %MON advcfl_W_hf_max              =   1.4346774700112E-01
(PID.TID 0000.0001) %MON pe_b_mean                    =   2.5120454950771E-04
(PID.TID 0000.0001) %MON ke_max                       =   1.9614075751080E-02
(PID.TID 0000.0001) %MON ke_mean                      =   2.6776415651631E-04
(PID.TID 0000.0001) %MON ke_vol                       =   1.3226782436723E+18
(PID.TID 0000.0001) %MON vort_r_min                   =  -9.3905046482073E-07
(PID.TID 0000.0001) %MON vort_r_max                   =   6.9230696077242E-07
(PID.TID 0000.0001) %MON vort_a_mean                  =  -2.5205767912653E-05
(PID.TID 0000.0001) %MON vort_a_sd                    =   7.3403497773778E-05
(PID.TID 0000.0001) %MON vort_p_mean                  =  -3.1758667691714E-05
(PID.TID 0000.0001) %MON vort_p_sd                    =   1.3126278373283E-04
(PID.TID 0000.0001) %MON surfExpan_theta_mean         =   1.5175530041273E-05
(PID.TID 0000.0001) %MON surfExpan_salt_mean          =   8.8639044638529E-07
(PID.TID 0000.0001) // =======================================================
(PID.TID 0000.0001) // End MONITOR dynamic field statistics
(PID.TID 0000.0001) // =======================================================
time,SST,SSS,fu,fv,Q,E-P,i0,i1,a,b =   3.3696E+06 -2.3380E-01  3.4480E+01 -1.8674E-02 -2.5560E-02  2.4554E+02  0.0000E+00     1     2  8.0000E-01  2.0000E-01
time,fu0,fu1,fu =   3.3696E+06 -3.5633E-02 -1.4435E-02 -1.8674E-02  8.0000E-01  2.0000E-01
 cg2d: Sum(rhs),rhsMax =   3.15442116871623E-14  9.32820152622927E+00
(PID.TID 0000.0001)                    cg2d_init_res =    3.86634412787511E-01
(PID.TID 0000.0001)                       cg2d_iters =    24
(PID.TID 0000.0001)                         cg2d_res =    7.70212412982158E-14
(PID.TID 0000.0001) // =======================================================
(PID.TID 0000.0001) // Begin MONITOR dynamic field statistics
(PID.TID 0000.0001) // =======================================================
(PID.TID 0000.0001) %MON time_tsnumber                =                    79
(PID.TID 0000.0001) %MON time_secondsf                =   3.4128000000000E+06
(PID.TID 0000.0001) %MON dynstat_eta_max              =   1.0307368447965E+00
(PID.TID 0000.0001) %MON dynstat_eta_min              =  -1.3023623260406E+00
(PID.TID 0000.0001) %MON dynstat_eta_mean             =  -1.3384955617327E-16
(PID.TID 0000.0001) %MON dynstat_eta_sd               =   4.4495189604964E-01
(PID.TID 0000.0001) %MON dynstat_eta_del2             =   1.9047063230925E-02
(PID.TID 0000.0001) %MON dynstat_uvel_max             =   2.1254822461955E-01
(PID.TID 0000.0001) %MON dynstat_uvel_min             =  -1.6165244893002E-01
(PID.TID 0000.0001) %MON dynstat_uvel_mean            =   7.9020770563686E-04
(PID.TID 0000.0001) %MON dynstat_uvel_sd              =   1.8500242170107E-02
(PID.TID 0000.0001) %MON dynstat_uvel_del2            =   4.9898267923198E-03
(PID.TID 0000.0001) %MON dynstat_vvel_max             =   1.7863438846892E-01
(PID.TID 0000.0001) %MON dynstat_vvel_min             =  -1.5592505883699E-01
(PID.TID 0000.0001) %MON dynstat_vvel_mean            =  -1.3030984185968E-03
(PID.TID 0000.0001) %MON dynstat_vvel_sd              =   1.5485759068385E-02
(PID.TID 0000.0001) %MON dynstat_vvel_del2            =   4.5935394999108E-03
(PID.TID 0000.0001) %MON dynstat_wvel_max             =   3.8068756339893E-04
(PID.TID 0000.0001) %MON dynstat_wvel_min             =  -2.4737159810038E-04
(PID.TID 0000.0001) %MON dynstat_wvel_mean            =   1.1095322057017E-22
(PID.TID 0000.0001) %MON dynstat_wvel_sd              =   2.3428769160050E-05
(PID.TID 0000.0001) %MON dynstat_wvel_del2            =   9.2754122360773E-06
(PID.TID 0000.0001) %MON dynstat_theta_max            =   2.9754335886214E+01
(PID.TID 0000.0001) %MON dynstat_theta_min            =  -1.9305282803803E+00
(PID.TID 0000.0001) %MON dynstat_theta_mean           =   3.5901842970111E+00
(PID.TID 0000.0001) %MON dynstat_theta_sd             =   4.3364137370896E+00
(PID.TID 0000.0001) %MON dynstat_theta_del2           =   1.2869872649336E-01
(PID.TID 0000.0001) %MON dynstat_salt_max             =   3.7394356928009E+01
(PID.TID 0000.0001) %MON dynstat_salt_min             =   2.9762549030329E+01
(PID.TID 0000.0001) %MON dynstat_salt_mean            =   3.4716010940493E+01
(PID.TID 0000.0001) %MON dynstat_salt_sd              =   2.9385492957795E-01
(PID.TID 0000.0001) %MON dynstat_salt_del2            =   2.3406082557881E-02
(PID.TID 0000.0001) %MON advcfl_uvel_max              =   3.0835699965356E-02
(PID.TID 0000.0001) %MON advcfl_vvel_max              =   1.7352898364181E-02
(PID.TID 0000.0001) %MON advcfl_wvel_max              =   1.4562635368982E-01
(PID.TID 0000.0001) %MON advcfl_W_hf_max              =   1.3797978660859E-01
(PID.TID 0000.0001) %MON pe_b_mean                    =   2.5334207520054E-04
(PID.TID 0000.0001) %MON ke_max                       =   2.0035380520081E-02
(PID.TID 0000.0001) %MON ke_mean                      =   2.6420010208712E-04
(PID.TID 0000.0001) %MON ke_vol                       =   1.3226782436723E+18
(PID.TID 0000.0001) %MON vort_r_min                   =  -9.1909171667205E-07
(PID.TID 0000.0001) %MON vort_r_max                   =   6.9963787786982E-07
(PID.TID 0000.0001) %MON vort_a_mean                  =  -2.5205767901430E-05
(PID.TID 0000.0001) %MON vort_a_sd                    =   7.3403502988399E-05
(PID.TID 0000.0001) %MON vort_p_mean                  =  -3.1758667677573E-05
(PID.TID 0000.0001) %MON vort_p_sd                    =   1.3126278192647E-04
(PID.TID 0000.0001) %MON surfExpan_theta_mean         =   1.4981075650444E-05
(PID.TID 0000.0001) %MON surfExpan_salt_mean          =   7.6923310281316E-07
(PID.TID 0000.0001) // =======================================================
(PID.TID 0000.0001) // End MONITOR dynamic field statistics
(PID.TID 0000.0001) // =======================================================
time,SST,SSS,fu,fv,Q,E-P,i0,i1,a,b =   3.4128E+06 -2.5864E-01  3.4475E+01 -1.8321E-02 -2.4899E-02  2.4512E+02  0.0000E+00     1     2  8.1667E-01  1.8333E-01
time,fu0,fu1,fu =   3.4128E+06 -3.5633E-02 -1.4435E-02 -1.8321E-02  8.1667E-01  1.8333E-01
 cg2d: Sum(rhs),rhsMax =   1.65423230669148E-13  9.78281000944755E+00
(PID.TID 0000.0001)                    cg2d_init_res =    3.48296791320533E-01
(PID.TID 0000.0001)                       cg2d_iters =    24
(PID.TID 0000.0001)                         cg2d_res =    5.94647986456955E-14
(PID.TID 0000.0001) // =======================================================
(PID.TID 0000.0001) // Begin MONITOR dynamic field statistics
(PID.TID 0000.0001) // =======================================================
(PID.TID 0000.0001) %MON time_tsnumber                =                    80
(PID.TID 0000.0001) %MON time_secondsf                =   3.4560000000000E+06
(PID.TID 0000.0001) %MON dynstat_eta_max              =   1.0839609017450E+00
(PID.TID 0000.0001) %MON dynstat_eta_min              =  -1.2907548815616E+00
(PID.TID 0000.0001) %MON dynstat_eta_mean             =  -3.2175099994053E-17
(PID.TID 0000.0001) %MON dynstat_eta_sd               =   4.4678059463846E-01
(PID.TID 0000.0001) %MON dynstat_eta_del2             =   1.9115343428735E-02
(PID.TID 0000.0001) %MON dynstat_uvel_max             =   2.1424142226971E-01
(PID.TID 0000.0001) %MON dynstat_uvel_min             =  -1.6019545934317E-01
(PID.TID 0000.0001) %MON dynstat_uvel_mean            =   8.2806984712660E-04
(PID.TID 0000.0001) %MON dynstat_uvel_sd              =   1.8290736757251E-02
(PID.TID 0000.0001) %MON dynstat_uvel_del2            =   4.9755986234466E-03
(PID.TID 0000.0001) %MON dynstat_vvel_max             =   1.7948458103662E-01
(PID.TID 0000.0001) %MON dynstat_vvel_min             =  -1.5540292974963E-01
(PID.TID 0000.0001) %MON dynstat_vvel_mean            =  -1.2074593757002E-03
(PID.TID 0000.0001) %MON dynstat_vvel_sd              =   1.5464503920505E-02
(PID.TID 0000.0001) %MON dynstat_vvel_del2            =   4.5789297312466E-03
(PID.TID 0000.0001) %MON dynstat_wvel_max             =   3.8182716149700E-04
(PID.TID 0000.0001) %MON dynstat_wvel_min             =  -2.4589154386451E-04
(PID.TID 0000.0001) %MON dynstat_wvel_mean            =   7.8934432030998E-22
(PID.TID 0000.0001) %MON dynstat_wvel_sd              =   2.3238313259404E-05
(PID.TID 0000.0001) %MON dynstat_wvel_del2            =   9.2118781662796E-06
(PID.TID 0000.0001) %MON dynstat_theta_max            =   2.9760095384110E+01
(PID.TID 0000.0001) %MON dynstat_theta_min            =  -1.9305858056816E+00
(PID.TID 0000.0001) %MON dynstat_theta_mean           =   3.5900666340148E+00
(PID.TID 0000.0001) %MON dynstat_theta_sd             =   4.3361283974631E+00
(PID.TID 0000.0001) %MON dynstat_theta_del2           =   1.2865461436123E-01
(PID.TID 0000.0001) %MON dynstat_salt_max             =   3.7394406143836E+01
(PID.TID 0000.0001) %MON dynstat_salt_min             =   2.9760572584387E+01
(PID.TID 0000.0001) %MON dynstat_salt_mean            =   3.4716004236342E+01
(PID.TID 0000.0001) %MON dynstat_salt_sd              =   2.9383613494876E-01
(PID.TID 0000.0001) %MON dynstat_salt_del2            =   2.3384742228479E-02
(PID.TID 0000.0001) %MON advcfl_uvel_max              =   3.0782515250257E-02
(PID.TID 0000.0001) %MON advcfl_vvel_max              =   1.7435487754408E-02
(PID.TID 0000.0001) %MON advcfl_wvel_max              =   1.3584353784531E-01
(PID.TID 0000.0001) %MON advcfl_W_hf_max              =   1.2882317687305E-01
(PID.TID 0000.0001) %MON pe_b_mean                    =   2.5542876513223E-04
(PID.TID 0000.0001) %MON ke_max                       =   2.0392660638801E-02
(PID.TID 0000.0001) %MON ke_mean                      =   2.6032298533732E-04
(PID.TID 0000.0001) %MON ke_vol                       =   1.3226782436723E+18
(PID.TID 0000.0001) %MON vort_r_min                   =  -8.9894464411091E-07
(PID.TID 0000.0001) %MON vort_r_max                   =   7.0631083807920E-07
(PID.TID 0000.0001) %MON vort_a_mean                  =  -2.5205767895108E-05
(PID.TID 0000.0001) %MON vort_a_sd                    =   7.3403507413013E-05
(PID.TID 0000.0001) %MON vort_p_mean                  =  -3.1758667669608E-05
(PID.TID 0000.0001) %MON vort_p_sd                    =   1.3126278042242E-04
(PID.TID 0000.0001) %MON surfExpan_theta_mean         =   1.4749037589993E-05
(PID.TID 0000.0001) %MON surfExpan_salt_mean          =   6.4735040960549E-07
(PID.TID 0000.0001) // =======================================================
(PID.TID 0000.0001) // End MONITOR dynamic field statistics
(PID.TID 0000.0001) // =======================================================
(PID.TID 0000.0001) // Time-average data written, t-step        80
(PID.TID 0000.0001) 
time,SST,SSS,fu,fv,Q,E-P,i0,i1,a,b =   3.4560E+06 -2.8348E-01  3.4470E+01 -1.7968E-02 -2.4239E-02  2.4470E+02  0.0000E+00     1     2  8.3333E-01  1.6667E-01
time,fu0,fu1,fu =   3.4560E+06 -3.5633E-02 -1.4435E-02 -1.7968E-02  8.3333E-01  1.6667E-01
 cg2d: Sum(rhs),rhsMax =   8.86374307285109E-14  1.01326134749906E+01
(PID.TID 0000.0001)                    cg2d_init_res =    3.17498451819598E-01
(PID.TID 0000.0001)                       cg2d_iters =    23
(PID.TID 0000.0001)                         cg2d_res =    7.55904640275585E-14
(PID.TID 0000.0001) // =======================================================
(PID.TID 0000.0001) // Begin MONITOR dynamic field statistics
(PID.TID 0000.0001) // =======================================================
(PID.TID 0000.0001) %MON time_tsnumber                =                    81
(PID.TID 0000.0001) %MON time_secondsf                =   3.4992000000000E+06
(PID.TID 0000.0001) %MON dynstat_eta_max              =   1.1252265796174E+00
(PID.TID 0000.0001) %MON dynstat_eta_min              =  -1.2824486320223E+00
(PID.TID 0000.0001) %MON dynstat_eta_mean             =  -9.3396533621311E-18
(PID.TID 0000.0001) %MON dynstat_eta_sd               =   4.4852707965246E-01
(PID.TID 0000.0001) %MON dynstat_eta_del2             =   1.9197130515978E-02
(PID.TID 0000.0001) %MON dynstat_uvel_max             =   2.1514660209911E-01
(PID.TID 0000.0001) %MON dynstat_uvel_min             =  -1.5865080640519E-01
(PID.TID 0000.0001) %MON dynstat_uvel_mean            =   8.6233964576039E-04
(PID.TID 0000.0001) %MON dynstat_uvel_sd              =   1.8069933019685E-02
(PID.TID 0000.0001) %MON dynstat_uvel_del2            =   4.9627429987565E-03
(PID.TID 0000.0001) %MON dynstat_vvel_max             =   1.8015089447258E-01
(PID.TID 0000.0001) %MON dynstat_vvel_min             =  -1.5473881683906E-01
(PID.TID 0000.0001) %MON dynstat_vvel_mean            =  -1.1133730501750E-03
(PID.TID 0000.0001) %MON dynstat_vvel_sd              =   1.5437039394635E-02
(PID.TID 0000.0001) %MON dynstat_vvel_del2            =   4.5644567335976E-03
(PID.TID 0000.0001) %MON dynstat_wvel_max             =   3.8288764893610E-04
(PID.TID 0000.0001) %MON dynstat_wvel_min             =  -2.4402581338591E-04
(PID.TID 0000.0001) %MON dynstat_wvel_mean            =  -4.5931889173060E-22
(PID.TID 0000.0001) %MON dynstat_wvel_sd              =   2.3056461721703E-05
(PID.TID 0000.0001) %MON dynstat_wvel_del2            =   9.1480048242593E-06
(PID.TID 0000.0001) %MON dynstat_theta_max            =   2.9765672987490E+01
(PID.TID 0000.0001) %MON dynstat_theta_min            =  -1.9306897153174E+00
(PID.TID 0000.0001) %MON dynstat_theta_mean           =   3.5899524400290E+00
(PID.TID 0000.0001) %MON dynstat_theta_sd             =   4.3358584393242E+00
(PID.TID 0000.0001) %MON dynstat_theta_del2           =   1.2863639225286E-01
(PID.TID 0000.0001) %MON dynstat_salt_max             =   3.7394410825411E+01
(PID.TID 0000.0001) %MON dynstat_salt_min             =   2.9758602649927E+01
(PID.TID 0000.0001) %MON dynstat_salt_mean            =   3.4715998919833E+01
(PID.TID 0000.0001) %MON dynstat_salt_sd              =   2.9381775556674E-01
(PID.TID 0000.0001) %MON dynstat_salt_del2            =   2.3360738788444E-02
(PID.TID 0000.0001) %MON advcfl_uvel_max              =   3.0726954064478E-02
(PID.TID 0000.0001) %MON advcfl_vvel_max              =   1.7500214761520E-02
(PID.TID 0000.0001) %MON advcfl_wvel_max              =   1.2268532972655E-01
(PID.TID 0000.0001) %MON advcfl_W_hf_max              =   1.1654078368835E-01
(PID.TID 0000.0001) %MON pe_b_mean                    =   2.5742963281981E-04
(PID.TID 0000.0001) %MON ke_max                       =   2.0721456792919E-02
(PID.TID 0000.0001) %MON ke_mean                      =   2.5622275446922E-04
(PID.TID 0000.0001) %MON ke_vol                       =   1.3226782436723E+18
(PID.TID 0000.0001) %MON vort_r_min                   =  -8.7880432789645E-07
(PID.TID 0000.0001) %MON vort_r_max                   =   7.1219748217476E-07
(PID.TID 0000.0001) %MON vort_a_mean                  =  -2.5205767893744E-05
(PID.TID 0000.0001) %MON vort_a_sd                    =   7.3403511029564E-05
(PID.TID 0000.0001) %MON vort_p_mean                  =  -3.1758667667890E-05
(PID.TID 0000.0001) %MON vort_p_sd                    =   1.3126277840471E-04
(PID.TID 0000.0001) %MON surfExpan_theta_mean         =   1.4481832905853E-05
(PID.TID 0000.0001) %MON surfExpan_salt_mean          =   5.2488033313771E-07
(PID.TID 0000.0001) // =======================================================
(PID.TID 0000.0001) // End MONITOR dynamic field statistics
(PID.TID 0000.0001) // =======================================================
time,SST,SSS,fu,fv,Q,E-P,i0,i1,a,b =   3.4992E+06 -3.0831E-01  3.4465E+01 -1.7614E-02 -2.3579E-02  2.4427E+02  0.0000E+00     1     2  8.5000E-01  1.5000E-01
time,fu0,fu1,fu =   3.4992E+06 -3.5633E-02 -1.4435E-02 -1.7614E-02  8.5000E-01  1.5000E-01
 cg2d: Sum(rhs),rhsMax =  -4.54844495401119E-13  1.03744128804497E+01
(PID.TID 0000.0001)                    cg2d_init_res =    2.93823210923501E-01
(PID.TID 0000.0001)                       cg2d_iters =    24
(PID.TID 0000.0001)                         cg2d_res =    4.30144060569559E-14
(PID.TID 0000.0001) // =======================================================
(PID.TID 0000.0001) // Begin MONITOR dynamic field statistics
(PID.TID 0000.0001) // =======================================================
(PID.TID 0000.0001) %MON time_tsnumber                =                    82
(PID.TID 0000.0001) %MON time_secondsf                =   3.5424000000000E+06
(PID.TID 0000.0001) %MON dynstat_eta_max              =   1.1542049567022E+00
(PID.TID 0000.0001) %MON dynstat_eta_min              =  -1.2777069354579E+00
(PID.TID 0000.0001) %MON dynstat_eta_mean             =   2.9727232635457E-17
(PID.TID 0000.0001) %MON dynstat_eta_sd               =   4.5016759288121E-01
(PID.TID 0000.0001) %MON dynstat_eta_del2             =   1.9248990194996E-02
(PID.TID 0000.0001) %MON dynstat_uvel_max             =   2.1526327356917E-01
(PID.TID 0000.0001) %MON dynstat_uvel_min             =  -1.5702483709613E-01
(PID.TID 0000.0001) %MON dynstat_uvel_mean            =   8.9294680662971E-04
(PID.TID 0000.0001) %MON dynstat_uvel_sd              =   1.7841340514796E-02
(PID.TID 0000.0001) %MON dynstat_uvel_del2            =   4.9512930437762E-03
(PID.TID 0000.0001) %MON dynstat_vvel_max             =   1.8060888644930E-01
(PID.TID 0000.0001) %MON dynstat_vvel_min             =  -1.5393813860946E-01
(PID.TID 0000.0001) %MON dynstat_vvel_mean            =  -1.0210853239726E-03
(PID.TID 0000.0001) %MON dynstat_vvel_sd              =   1.5404939121913E-02
(PID.TID 0000.0001) %MON dynstat_vvel_del2            =   4.5494337919555E-03
(PID.TID 0000.0001) %MON dynstat_wvel_max             =   3.8387406119513E-04
(PID.TID 0000.0001) %MON dynstat_wvel_min             =  -2.4182279274645E-04
(PID.TID 0000.0001) %MON dynstat_wvel_mean            =  -3.0614520234320E-24
(PID.TID 0000.0001) %MON dynstat_wvel_sd              =   2.2886377969278E-05
(PID.TID 0000.0001) %MON dynstat_wvel_del2            =   9.0831306678880E-06
(PID.TID 0000.0001) %MON dynstat_theta_max            =   2.9770992882654E+01
(PID.TID 0000.0001) %MON dynstat_theta_min            =  -1.9308451689046E+00
(PID.TID 0000.0001) %MON dynstat_theta_mean           =   3.5898420918877E+00
(PID.TID 0000.0001) %MON dynstat_theta_sd             =   4.3356040208600E+00
(PID.TID 0000.0001) %MON dynstat_theta_del2           =   1.2862409977279E-01
(PID.TID 0000.0001) %MON dynstat_salt_max             =   3.7394371287692E+01
(PID.TID 0000.0001) %MON dynstat_salt_min             =   2.9756640579851E+01
(PID.TID 0000.0001) %MON dynstat_salt_mean            =   3.4715994934423E+01
(PID.TID 0000.0001) %MON dynstat_salt_sd              =   2.9379998024969E-01
(PID.TID 0000.0001) %MON dynstat_salt_del2            =   2.3340001530900E-02
(PID.TID 0000.0001) %MON advcfl_uvel_max              =   3.0669466357342E-02
(PID.TID 0000.0001) %MON advcfl_vvel_max              =   1.7544705009404E-02
(PID.TID 0000.0001) %MON advcfl_wvel_max              =   1.0682556366991E-01
(PID.TID 0000.0001) %MON advcfl_W_hf_max              =   1.0175685935850E-01
(PID.TID 0000.0001) %MON pe_b_mean                    =   2.5931620360218E-04
(PID.TID 0000.0001) %MON ke_max                       =   2.0940623253128E-02
(PID.TID 0000.0001) %MON ke_mean                      =   2.5198476211790E-04
(PID.TID 0000.0001) %MON ke_vol                       =   1.3226782436723E+18
(PID.TID 0000.0001) %MON vort_r_min                   =  -8.5885135046206E-07
(PID.TID 0000.0001) %MON vort_r_max                   =   7.1718998661908E-07
(PID.TID 0000.0001) %MON vort_a_mean                  =  -2.5205767897221E-05
(PID.TID 0000.0001) %MON vort_a_sd                    =   7.3403513815495E-05
(PID.TID 0000.0001) %MON vort_p_mean                  =  -3.1758667672270E-05
(PID.TID 0000.0001) %MON vort_p_sd                    =   1.3126277501737E-04
(PID.TID 0000.0001) %MON surfExpan_theta_mean         =   1.4181046918594E-05
(PID.TID 0000.0001) %MON surfExpan_salt_mean          =   4.0545452168597E-07
(PID.TID 0000.0001) // =======================================================
(PID.TID 0000.0001) // End MONITOR dynamic field statistics
(PID.TID 0000.0001) // =======================================================
time,SST,SSS,fu,fv,Q,E-P,i0,i1,a,b =   3.5424E+06 -3.3315E-01  3.4460E+01 -1.7261E-02 -2.2918E-02  2.4385E+02  0.0000E+00     1     2  8.6667E-01  1.3333E-01
time,fu0,fu1,fu =   3.5424E+06 -3.5633E-02 -1.4435E-02 -1.7261E-02  8.6667E-01  1.3333E-01
 cg2d: Sum(rhs),rhsMax =  -8.29475377273070E-14  1.05072072836047E+01
(PID.TID 0000.0001)                    cg2d_init_res =    2.77032835226326E-01
(PID.TID 0000.0001)                       cg2d_iters =    24
(PID.TID 0000.0001)                         cg2d_res =    5.23024409505130E-14
(PID.TID 0000.0001) // =======================================================
(PID.TID 0000.0001) // Begin MONITOR dynamic field statistics
(PID.TID 0000.0001) // =======================================================
(PID.TID 0000.0001) %MON time_tsnumber                =                    83
(PID.TID 0000.0001) %MON time_secondsf                =   3.5856000000000E+06
(PID.TID 0000.0001) %MON dynstat_eta_max              =   1.1708212889746E+00
(PID.TID 0000.0001) %MON dynstat_eta_min              =  -1.2765718454980E+00
(PID.TID 0000.0001) %MON dynstat_eta_mean             =  -6.5975365630761E-18
(PID.TID 0000.0001) %MON dynstat_eta_sd               =   4.5168588443433E-01
(PID.TID 0000.0001) %MON dynstat_eta_del2             =   1.9282495127733E-02
(PID.TID 0000.0001) %MON dynstat_uvel_max             =   2.1460011868349E-01
(PID.TID 0000.0001) %MON dynstat_uvel_min             =  -1.5532358672488E-01
(PID.TID 0000.0001) %MON dynstat_uvel_mean            =   9.1982307175579E-04
(PID.TID 0000.0001) %MON dynstat_uvel_sd              =   1.7608236352877E-02
(PID.TID 0000.0001) %MON dynstat_uvel_del2            =   4.9407070027634E-03
(PID.TID 0000.0001) %MON dynstat_vvel_max             =   1.8083996314612E-01
(PID.TID 0000.0001) %MON dynstat_vvel_min             =  -1.5300566367677E-01
(PID.TID 0000.0001) %MON dynstat_vvel_mean            =  -9.3062501973295E-04
(PID.TID 0000.0001) %MON dynstat_vvel_sd              =   1.5369723081563E-02
(PID.TID 0000.0001) %MON dynstat_vvel_del2            =   4.5337286546021E-03
(PID.TID 0000.0001) %MON dynstat_wvel_max             =   3.8478877993171E-04
(PID.TID 0000.0001) %MON dynstat_wvel_min             =  -2.3933113752000E-04
(PID.TID 0000.0001) %MON dynstat_wvel_mean            =  -1.5101170521094E-22
(PID.TID 0000.0001) %MON dynstat_wvel_sd              =   2.2730074899263E-05
(PID.TID 0000.0001) %MON dynstat_wvel_del2            =   9.0223741856803E-06
(PID.TID 0000.0001) %MON dynstat_theta_max            =   2.9775992113104E+01
(PID.TID 0000.0001) %MON dynstat_theta_min            =  -1.9310481149506E+00
(PID.TID 0000.0001) %MON dynstat_theta_mean           =   3.5897359125361E+00
(PID.TID 0000.0001) %MON dynstat_theta_sd             =   4.3353655840532E+00
(PID.TID 0000.0001) %MON dynstat_theta_del2           =   1.2861893063367E-01
(PID.TID 0000.0001) %MON dynstat_salt_max             =   3.7394288645450E+01
(PID.TID 0000.0001) %MON dynstat_salt_min             =   2.9754687076432E+01
(PID.TID 0000.0001) %MON dynstat_salt_mean            =   3.4715992188118E+01
(PID.TID 0000.0001) %MON dynstat_salt_sd              =   2.9378270039275E-01
(PID.TID 0000.0001) %MON dynstat_salt_del2            =   2.3317294175718E-02
(PID.TID 0000.0001) %MON advcfl_uvel_max              =   3.0610329014003E-02
(PID.TID 0000.0001) %MON advcfl_vvel_max              =   1.7567152257489E-02
(PID.TID 0000.0001) %MON advcfl_wvel_max              =   8.8994262557762E-02
(PID.TID 0000.0001) %MON advcfl_W_hf_max              =   8.5147510240352E-02
(PID.TID 0000.0001) %MON pe_b_mean                    =   2.6106835794815E-04
(PID.TID 0000.0001) %MON ke_max                       =   2.1047660676785E-02
(PID.TID 0000.0001) %MON ke_mean                      =   2.4768687873329E-04
(PID.TID 0000.0001) %MON ke_vol                       =   1.3226782436723E+18
(PID.TID 0000.0001) %MON vort_r_min                   =  -8.3924813092395E-07
(PID.TID 0000.0001) %MON vort_r_max                   =   7.2120379281038E-07
(PID.TID 0000.0001) %MON vort_a_mean                  =  -2.5205767904858E-05
(PID.TID 0000.0001) %MON vort_a_sd                    =   7.3403515752814E-05
(PID.TID 0000.0001) %MON vort_p_mean                  =  -3.1758667681892E-05
(PID.TID 0000.0001) %MON vort_p_sd                    =   1.3126276948636E-04
(PID.TID 0000.0001) %MON surfExpan_theta_mean         =   1.3848717550136E-05
(PID.TID 0000.0001) %MON surfExpan_salt_mean          =   2.9237254075730E-07
(PID.TID 0000.0001) // =======================================================
(PID.TID 0000.0001) // End MONITOR dynamic field statistics
(PID.TID 0000.0001) // =======================================================
time,SST,SSS,fu,fv,Q,E-P,i0,i1,a,b =   3.5856E+06 -3.5799E-01  3.4455E+01 -1.6908E-02 -2.2258E-02  2.4343E+02  0.0000E+00     1     2  8.8333E-01  1.1667E-01
time,fu0,fu1,fu =   3.5856E+06 -3.5633E-02 -1.4435E-02 -1.6908E-02  8.8333E-01  1.1667E-01
 cg2d: Sum(rhs),rhsMax =  -2.68007838144513E-13  1.05321350243996E+01
(PID.TID 0000.0001)                    cg2d_init_res =    2.66908362384659E-01
(PID.TID 0000.0001)                       cg2d_iters =    24
(PID.TID 0000.0001)                         cg2d_res =    4.88349851732217E-14
(PID.TID 0000.0001) // =======================================================
(PID.TID 0000.0001) // Begin MONITOR dynamic field statistics
(PID.TID 0000.0001) // =======================================================
(PID.TID 0000.0001) %MON time_tsnumber                =                    84
(PID.TID 0000.0001) %MON time_secondsf                =   3.6288000000000E+06
(PID.TID 0000.0001) %MON dynstat_eta_max              =   1.1752433993427E+00
(PID.TID 0000.0001) %MON dynstat_eta_min              =  -1.2788824552923E+00
(PID.TID 0000.0001) %MON dynstat_eta_mean             =   3.9517582738379E-18
(PID.TID 0000.0001) %MON dynstat_eta_sd               =   4.5307378792830E-01
(PID.TID 0000.0001) %MON dynstat_eta_del2             =   1.9292311096425E-02
(PID.TID 0000.0001) %MON dynstat_uvel_max             =   2.1317488538454E-01
(PID.TID 0000.0001) %MON dynstat_uvel_min             =  -1.5355290826213E-01
(PID.TID 0000.0001) %MON dynstat_uvel_mean            =   9.4291951726198E-04
(PID.TID 0000.0001) %MON dynstat_uvel_sd              =   1.7373650305909E-02
(PID.TID 0000.0001) %MON dynstat_uvel_del2            =   4.9302527005266E-03
(PID.TID 0000.0001) %MON dynstat_vvel_max             =   1.8083168162816E-01
(PID.TID 0000.0001) %MON dynstat_vvel_min             =  -1.5194546598584E-01
(PID.TID 0000.0001) %MON dynstat_vvel_mean            =  -8.4183169064612E-04
(PID.TID 0000.0001) %MON dynstat_vvel_sd              =   1.5332740178129E-02
(PID.TID 0000.0001) %MON dynstat_vvel_del2            =   4.5192284514453E-03
(PID.TID 0000.0001) %MON dynstat_wvel_max             =   3.8563083331648E-04
(PID.TID 0000.0001) %MON dynstat_wvel_min             =  -2.3659898053489E-04
(PID.TID 0000.0001) %MON dynstat_wvel_mean            =  -3.3389182324026E-23
(PID.TID 0000.0001) %MON dynstat_wvel_sd              =   2.2588285904024E-05
(PID.TID 0000.0001) %MON dynstat_wvel_del2            =   8.9669975012041E-06
(PID.TID 0000.0001) %MON dynstat_theta_max            =   2.9780623051612E+01
(PID.TID 0000.0001) %MON dynstat_theta_min            =  -1.9312880733547E+00
(PID.TID 0000.0001) %MON dynstat_theta_mean           =   3.5896342410360E+00
(PID.TID 0000.0001) %MON dynstat_theta_sd             =   4.3351418227560E+00
(PID.TID 0000.0001) %MON dynstat_theta_del2           =   1.2862316256510E-01
(PID.TID 0000.0001) %MON dynstat_salt_max             =   3.7394164667072E+01
(PID.TID 0000.0001) %MON dynstat_salt_min             =   2.9752742329446E+01
(PID.TID 0000.0001) %MON dynstat_salt_mean            =   3.4715990560469E+01
(PID.TID 0000.0001) %MON dynstat_salt_sd              =   2.9376473851282E-01
(PID.TID 0000.0001) %MON dynstat_salt_del2            =   2.3291091895577E-02
(PID.TID 0000.0001) %MON advcfl_uvel_max              =   3.0549687141952E-02
(PID.TID 0000.0001) %MON advcfl_vvel_max              =   1.7566347774428E-02
(PID.TID 0000.0001) %MON advcfl_wvel_max              =   7.1776772730400E-02
(PID.TID 0000.0001) %MON advcfl_W_hf_max              =   6.7411055525046E-02
(PID.TID 0000.0001) %MON pe_b_mean                    =   2.6267520190538E-04
(PID.TID 0000.0001) %MON ke_max                       =   2.1042063750873E-02
(PID.TID 0000.0001) %MON ke_mean                      =   2.4339777898179E-04
(PID.TID 0000.0001) %MON ke_vol                       =   1.3226782436723E+18
(PID.TID 0000.0001) %MON vort_r_min                   =  -8.2013597259796E-07
(PID.TID 0000.0001) %MON vort_r_max                   =   7.2417935365208E-07
(PID.TID 0000.0001) %MON vort_a_mean                  =  -2.5205767917138E-05
(PID.TID 0000.0001) %MON vort_a_sd                    =   7.3403516814825E-05
(PID.TID 0000.0001) %MON vort_p_mean                  =  -3.1758667697365E-05
(PID.TID 0000.0001) %MON vort_p_sd                    =   1.3126276104382E-04
(PID.TID 0000.0001) %MON surfExpan_theta_mean         =   1.3485904989203E-05
(PID.TID 0000.0001) %MON surfExpan_salt_mean          =   1.8835564319230E-07
(PID.TID 0000.0001) // =======================================================
(PID.TID 0000.0001) // End MONITOR dynamic field statistics
(PID.TID 0000.0001) // =======================================================
time,SST,SSS,fu,fv,Q,E-P,i0,i1,a,b =   3.6288E+06 -3.8283E-01  3.4450E+01 -1.6555E-02 -2.1598E-02  2.4301E+02  0.0000E+00     1     2  9.0000E-01  1.0000E-01
time,fu0,fu1,fu =   3.6288E+06 -3.5633E-02 -1.4435E-02 -1.6555E-02  9.0000E-01  1.0000E-01
 cg2d: Sum(rhs),rhsMax =   9.57567358739198E-16  1.04523935198126E+01
(PID.TID 0000.0001)                    cg2d_init_res =    2.63157718476466E-01
(PID.TID 0000.0001)                       cg2d_iters =    24
(PID.TID 0000.0001)                         cg2d_res =    4.56324272000750E-14
(PID.TID 0000.0001) // =======================================================
(PID.TID 0000.0001) // Begin MONITOR dynamic field statistics
(PID.TID 0000.0001) // =======================================================
(PID.TID 0000.0001) %MON time_tsnumber                =                    85
(PID.TID 0000.0001) %MON time_secondsf                =   3.6720000000000E+06
(PID.TID 0000.0001) %MON dynstat_eta_max              =   1.1678666537550E+00
(PID.TID 0000.0001) %MON dynstat_eta_min              =  -1.2843035114750E+00
(PID.TID 0000.0001) %MON dynstat_eta_mean             =  -1.4189685499306E-17
(PID.TID 0000.0001) %MON dynstat_eta_sd               =   4.5433112368268E-01
(PID.TID 0000.0001) %MON dynstat_eta_del2             =   1.9266505738788E-02
(PID.TID 0000.0001) %MON dynstat_uvel_max             =   2.1101423940565E-01
(PID.TID 0000.0001) %MON dynstat_uvel_min             =  -1.5449634864842E-01
(PID.TID 0000.0001) %MON dynstat_uvel_mean            =   9.6222354203171E-04
(PID.TID 0000.0001) %MON dynstat_uvel_sd              =   1.7140381213198E-02
(PID.TID 0000.0001) %MON dynstat_uvel_del2            =   4.9215716303578E-03
(PID.TID 0000.0001) %MON dynstat_vvel_max             =   1.8057779146247E-01
(PID.TID 0000.0001) %MON dynstat_vvel_min             =  -1.5076095505844E-01
(PID.TID 0000.0001) %MON dynstat_vvel_mean            =  -7.5439281339055E-04
(PID.TID 0000.0001) %MON dynstat_vvel_sd              =   1.5295078632285E-02
(PID.TID 0000.0001) %MON dynstat_vvel_del2            =   4.5056878221330E-03
(PID.TID 0000.0001) %MON dynstat_wvel_max             =   3.8639548848895E-04
(PID.TID 0000.0001) %MON dynstat_wvel_min             =  -2.3367293302226E-04
(PID.TID 0000.0001) %MON dynstat_wvel_mean            =   3.3466146451982E-23
(PID.TID 0000.0001) %MON dynstat_wvel_sd              =   2.2460546456791E-05
(PID.TID 0000.0001) %MON dynstat_wvel_del2            =   8.9148178003253E-06
(PID.TID 0000.0001) %MON dynstat_theta_max            =   2.9784854907212E+01
(PID.TID 0000.0001) %MON dynstat_theta_min            =  -1.9315920932088E+00
(PID.TID 0000.0001) %MON dynstat_theta_mean           =   3.5895372706621E+00
(PID.TID 0000.0001) %MON dynstat_theta_sd             =   4.3349347069906E+00
(PID.TID 0000.0001) %MON dynstat_theta_del2           =   1.2863654372381E-01
(PID.TID 0000.0001) %MON dynstat_salt_max             =   3.7394001596879E+01
(PID.TID 0000.0001) %MON dynstat_salt_min             =   2.9750806164070E+01
(PID.TID 0000.0001) %MON dynstat_salt_mean            =   3.4715989907595E+01
(PID.TID 0000.0001) %MON dynstat_salt_sd              =   2.9374806594074E-01
(PID.TID 0000.0001) %MON dynstat_salt_del2            =   2.3268888241014E-02
(PID.TID 0000.0001) %MON advcfl_uvel_max              =   3.0487577704072E-02
(PID.TID 0000.0001) %MON advcfl_vvel_max              =   1.7541684380785E-02
(PID.TID 0000.0001) %MON advcfl_wvel_max              =   6.9970695803594E-02
(PID.TID 0000.0001) %MON advcfl_W_hf_max              =   6.0461807753156E-02
(PID.TID 0000.0001) %MON pe_b_mean                    =   2.6413513714449E-04
(PID.TID 0000.0001) %MON ke_max                       =   2.0925317037799E-02
(PID.TID 0000.0001) %MON ke_mean                      =   2.3917625765471E-04
(PID.TID 0000.0001) %MON ke_vol                       =   1.3226782436723E+18
(PID.TID 0000.0001) %MON vort_r_min                   =  -8.0164246629280E-07
(PID.TID 0000.0001) %MON vort_r_max                   =   7.2608276172558E-07
(PID.TID 0000.0001) %MON vort_a_mean                  =  -2.5205767933787E-05
(PID.TID 0000.0001) %MON vort_a_sd                    =   7.3403516990717E-05
(PID.TID 0000.0001) %MON vort_p_mean                  =  -3.1758667718343E-05
(PID.TID 0000.0001) %MON vort_p_sd                    =   1.3126274906600E-04
(PID.TID 0000.0001) %MON surfExpan_theta_mean         =   1.3095947634474E-05
(PID.TID 0000.0001) %MON surfExpan_salt_mean          =   9.5615817031562E-08
(PID.TID 0000.0001) // =======================================================
(PID.TID 0000.0001) // End MONITOR dynamic field statistics
(PID.TID 0000.0001) // =======================================================
time,SST,SSS,fu,fv,Q,E-P,i0,i1,a,b =   3.6720E+06 -4.0767E-01  3.4446E+01 -1.6201E-02 -2.0937E-02  2.4259E+02  0.0000E+00     1     2  9.1667E-01  8.3333E-02
time,fu0,fu1,fu =   3.6720E+06 -3.5633E-02 -1.4435E-02 -1.6201E-02  9.1667E-01  8.3333E-02
 cg2d: Sum(rhs),rhsMax =   1.92901250528621E-14  1.02769511075740E+01
(PID.TID 0000.0001)                    cg2d_init_res =    2.65257330899552E-01
(PID.TID 0000.0001)                       cg2d_iters =    24
(PID.TID 0000.0001)                         cg2d_res =    4.32173512419474E-14
(PID.TID 0000.0001) // =======================================================
(PID.TID 0000.0001) // Begin MONITOR dynamic field statistics
(PID.TID 0000.0001) // =======================================================
(PID.TID 0000.0001) %MON time_tsnumber                =                    86
(PID.TID 0000.0001) %MON time_secondsf                =   3.7152000000000E+06
(PID.TID 0000.0001) %MON dynstat_eta_max              =   1.1492957358898E+00
(PID.TID 0000.0001) %MON dynstat_eta_min              =  -1.2923596577296E+00
(PID.TID 0000.0001) %MON dynstat_eta_mean             =   2.0511025296493E-16
(PID.TID 0000.0001) %MON dynstat_eta_sd               =   4.5546487600304E-01
(PID.TID 0000.0001) %MON dynstat_eta_del2             =   1.9243647429077E-02
(PID.TID 0000.0001) %MON dynstat_uvel_max             =   2.0815362664292E-01
(PID.TID 0000.0001) %MON dynstat_uvel_min             =  -1.5563922738506E-01
(PID.TID 0000.0001) %MON dynstat_uvel_mean            =   9.7775166978834E-04
(PID.TID 0000.0001) %MON dynstat_uvel_sd              =   1.6911036277075E-02
(PID.TID 0000.0001) %MON dynstat_uvel_del2            =   4.9150889828781E-03
(PID.TID 0000.0001) %MON dynstat_vvel_max             =   1.8007805253103E-01
(PID.TID 0000.0001) %MON dynstat_vvel_min             =  -1.4989384048031E-01
(PID.TID 0000.0001) %MON dynstat_vvel_mean            =  -6.6786307058984E-04
(PID.TID 0000.0001) %MON dynstat_vvel_sd              =   1.5257512757482E-02
(PID.TID 0000.0001) %MON dynstat_vvel_del2            =   4.4921053902887E-03
(PID.TID 0000.0001) %MON dynstat_wvel_max             =   3.8707411733903E-04
(PID.TID 0000.0001) %MON dynstat_wvel_min             =  -2.3059729277605E-04
(PID.TID 0000.0001) %MON dynstat_wvel_mean            =  -4.4492422547292E-22
(PID.TID 0000.0001) %MON dynstat_wvel_sd              =   2.2345328700055E-05
(PID.TID 0000.0001) %MON dynstat_wvel_del2            =   8.8664178309538E-06
(PID.TID 0000.0001) %MON dynstat_theta_max            =   2.9788674207624E+01
(PID.TID 0000.0001) %MON dynstat_theta_min            =  -1.9319422876476E+00
(PID.TID 0000.0001) %MON dynstat_theta_mean           =   3.5894452828962E+00
(PID.TID 0000.0001) %MON dynstat_theta_sd             =   4.3347431488537E+00
(PID.TID 0000.0001) %MON dynstat_theta_del2           =   1.2864714125986E-01
(PID.TID 0000.0001) %MON dynstat_salt_max             =   3.7393802007631E+01
(PID.TID 0000.0001) %MON dynstat_salt_min             =   2.9748878188412E+01
(PID.TID 0000.0001) %MON dynstat_salt_mean            =   3.4715990079393E+01
(PID.TID 0000.0001) %MON dynstat_salt_sd              =   2.9373144617873E-01
(PID.TID 0000.0001) %MON dynstat_salt_del2            =   2.3247467251890E-02
(PID.TID 0000.0001) %MON advcfl_uvel_max              =   3.0423947788094E-02
(PID.TID 0000.0001) %MON advcfl_vvel_max              =   1.7493138751021E-02
(PID.TID 0000.0001) %MON advcfl_wvel_max              =   6.6378915920138E-02
(PID.TID 0000.0001) %MON advcfl_W_hf_max              =   6.2538226006986E-02
(PID.TID 0000.0001) %MON pe_b_mean                    =   2.6545504438733E-04
(PID.TID 0000.0001) %MON ke_max                       =   2.0700850666905E-02
(PID.TID 0000.0001) %MON ke_mean                      =   2.3507144149781E-04
(PID.TID 0000.0001) %MON ke_vol                       =   1.3226782436723E+18
(PID.TID 0000.0001) %MON vort_r_min                   =  -7.8387861155087E-07
(PID.TID 0000.0001) %MON vort_r_max                   =   7.2690533815893E-07
(PID.TID 0000.0001) %MON vort_a_mean                  =  -2.5205767954124E-05
(PID.TID 0000.0001) %MON vort_a_sd                    =   7.3403516281454E-05
(PID.TID 0000.0001) %MON vort_p_mean                  =  -3.1758667743967E-05
(PID.TID 0000.0001) %MON vort_p_sd                    =   1.3126273300758E-04
(PID.TID 0000.0001) %MON surfExpan_theta_mean         =   1.2681919160064E-05
(PID.TID 0000.0001) %MON surfExpan_salt_mean          =   1.5668439386968E-08
(PID.TID 0000.0001) // =======================================================
(PID.TID 0000.0001) // End MONITOR dynamic field statistics
(PID.TID 0000.0001) // =======================================================
time,SST,SSS,fu,fv,Q,E-P,i0,i1,a,b =   3.7152E+06 -4.3250E-01  3.4441E+01 -1.5848E-02 -2.0277E-02  2.4217E+02  0.0000E+00     1     2  9.3333E-01  6.6667E-02
time,fu0,fu1,fu =   3.7152E+06 -3.5633E-02 -1.4435E-02 -1.5848E-02  9.3333E-01  6.6667E-02
 cg2d: Sum(rhs),rhsMax =   7.99776911364347E-14  1.00214503437478E+01
(PID.TID 0000.0001)                    cg2d_init_res =    2.72436471334012E-01
(PID.TID 0000.0001)                       cg2d_iters =    24
(PID.TID 0000.0001)                         cg2d_res =    4.15419469486406E-14
(PID.TID 0000.0001) // =======================================================
(PID.TID 0000.0001) // Begin MONITOR dynamic field statistics
(PID.TID 0000.0001) // =======================================================
(PID.TID 0000.0001) %MON time_tsnumber                =                    87
(PID.TID 0000.0001) %MON time_secondsf                =   3.7584000000000E+06
(PID.TID 0000.0001) %MON dynstat_eta_max              =   1.1203249113002E+00
(PID.TID 0000.0001) %MON dynstat_eta_min              =  -1.3024737651070E+00
(PID.TID 0000.0001) %MON dynstat_eta_mean             =   1.1385921519920E-16
(PID.TID 0000.0001) %MON dynstat_eta_sd               =   4.5648807086957E-01
(PID.TID 0000.0001) %MON dynstat_eta_del2             =   1.9213479879968E-02
(PID.TID 0000.0001) %MON dynstat_uvel_max             =   2.0463684736026E-01
(PID.TID 0000.0001) %MON dynstat_uvel_min             =  -1.5656157310668E-01
(PID.TID 0000.0001) %MON dynstat_uvel_mean            =   9.8957932179343E-04
(PID.TID 0000.0001) %MON dynstat_uvel_sd              =   1.6688072411925E-02
(PID.TID 0000.0001) %MON dynstat_uvel_del2            =   4.9107449639419E-03
(PID.TID 0000.0001) %MON dynstat_vvel_max             =   1.7933785971134E-01
(PID.TID 0000.0001) %MON dynstat_vvel_min             =  -1.5018994599741E-01
(PID.TID 0000.0001) %MON dynstat_vvel_mean            =  -5.8172016227115E-04
(PID.TID 0000.0001) %MON dynstat_vvel_sd              =   1.5220486621179E-02
(PID.TID 0000.0001) %MON dynstat_vvel_del2            =   4.4790188074432E-03
(PID.TID 0000.0001) %MON dynstat_wvel_max             =   3.8765421305059E-04
(PID.TID 0000.0001) %MON dynstat_wvel_min             =  -2.2741349799786E-04
(PID.TID 0000.0001) %MON dynstat_wvel_mean            =   5.3985116715195E-23
(PID.TID 0000.0001) %MON dynstat_wvel_sd              =   2.2240326983730E-05
(PID.TID 0000.0001) %MON dynstat_wvel_del2            =   8.8246420351479E-06
(PID.TID 0000.0001) %MON dynstat_theta_max            =   2.9792110193955E+01
(PID.TID 0000.0001) %MON dynstat_theta_min            =  -1.9321433277747E+00
(PID.TID 0000.0001) %MON dynstat_theta_mean           =   3.5893584421218E+00
(PID.TID 0000.0001) %MON dynstat_theta_sd             =   4.3345669295878E+00
(PID.TID 0000.0001) %MON dynstat_theta_del2           =   1.2866579876924E-01
(PID.TID 0000.0001) %MON dynstat_salt_max             =   3.7393568721818E+01
(PID.TID 0000.0001) %MON dynstat_salt_min             =   2.9746957931658E+01
(PID.TID 0000.0001) %MON dynstat_salt_mean            =   3.4715990912940E+01
(PID.TID 0000.0001) %MON dynstat_salt_sd              =   2.9371479649123E-01
(PID.TID 0000.0001) %MON dynstat_salt_del2            =   2.3225119051070E-02
(PID.TID 0000.0001) %MON advcfl_uvel_max              =   3.0358709295696E-02
(PID.TID 0000.0001) %MON advcfl_vvel_max              =   1.7421234954220E-02
(PID.TID 0000.0001) %MON advcfl_wvel_max              =   6.1205659147326E-02
(PID.TID 0000.0001) %MON advcfl_W_hf_max              =   6.3953320175779E-02
(PID.TID 0000.0001) %MON pe_b_mean                    =   2.6664906543881E-04
(PID.TID 0000.0001) %MON ke_max                       =   2.0373919985830E-02
(PID.TID 0000.0001) %MON ke_mean                      =   2.3112361154468E-04
(PID.TID 0000.0001) %MON ke_vol                       =   1.3226782436723E+18
(PID.TID 0000.0001) %MON vort_r_min                   =  -7.6692532502229E-07
(PID.TID 0000.0001) %MON vort_r_max                   =   7.2666228871113E-07
(PID.TID 0000.0001) %MON vort_a_mean                  =  -2.5205767977741E-05
(PID.TID 0000.0001) %MON vort_a_sd                    =   7.3403514700175E-05
(PID.TID 0000.0001) %MON vort_p_mean                  =  -3.1758667773724E-05
(PID.TID 0000.0001) %MON vort_p_sd                    =   1.3126271243602E-04
(PID.TID 0000.0001) %MON surfExpan_theta_mean         =   1.2247634898507E-05
(PID.TID 0000.0001) %MON surfExpan_salt_mean          =  -5.0555604621813E-08
(PID.TID 0000.0001) // =======================================================
(PID.TID 0000.0001) // End MONITOR dynamic field statistics
(PID.TID 0000.0001) // =======================================================
time,SST,SSS,fu,fv,Q,E-P,i0,i1,a,b =   3.7584E+06 -4.5734E-01  3.4436E+01 -1.5495E-02 -1.9617E-02  2.4175E+02  0.0000E+00     1     2  9.5000E-01  5.0000E-02
time,fu0,fu1,fu =   3.7584E+06 -3.5633E-02 -1.4435E-02 -1.5495E-02  9.5000E-01  5.0000E-02
 cg2d: Sum(rhs),rhsMax =  -2.02476924116013E-14  9.68125317600691E+00
(PID.TID 0000.0001)                    cg2d_init_res =    2.84453504767375E-01
(PID.TID 0000.0001)                       cg2d_iters =    24
(PID.TID 0000.0001)                         cg2d_res =    4.07690512923552E-14
(PID.TID 0000.0001) // =======================================================
(PID.TID 0000.0001) // Begin MONITOR dynamic field statistics
(PID.TID 0000.0001) // =======================================================
(PID.TID 0000.0001) %MON time_tsnumber                =                    88
(PID.TID 0000.0001) %MON time_secondsf                =   3.8016000000000E+06
(PID.TID 0000.0001) %MON dynstat_eta_max              =   1.0819158862065E+00
(PID.TID 0000.0001) %MON dynstat_eta_min              =  -1.3140070696144E+00
(PID.TID 0000.0001) %MON dynstat_eta_mean             =  -1.1713461743644E-17
(PID.TID 0000.0001) %MON dynstat_eta_sd               =   4.5741835473427E-01
(PID.TID 0000.0001) %MON dynstat_eta_del2             =   1.9173138871952E-02
(PID.TID 0000.0001) %MON dynstat_uvel_max             =   2.0051519992058E-01
(PID.TID 0000.0001) %MON dynstat_uvel_min             =  -1.5726899993994E-01
(PID.TID 0000.0001) %MON dynstat_uvel_mean            =   9.9783783196122E-04
(PID.TID 0000.0001) %MON dynstat_uvel_sd              =   1.6473844760390E-02
(PID.TID 0000.0001) %MON dynstat_uvel_del2            =   4.9071648418369E-03
(PID.TID 0000.0001) %MON dynstat_vvel_max             =   1.7836770489315E-01
(PID.TID 0000.0001) %MON dynstat_vvel_min             =  -1.5046514050974E-01
(PID.TID 0000.0001) %MON dynstat_vvel_mean            =  -4.9539921703086E-04
(PID.TID 0000.0001) %MON dynstat_vvel_sd              =   1.5184122905028E-02
(PID.TID 0000.0001) %MON dynstat_vvel_del2            =   4.4666324448625E-03
(PID.TID 0000.0001) %MON dynstat_wvel_max             =   3.8811961783101E-04
(PID.TID 0000.0001) %MON dynstat_wvel_min             =  -2.2415977072861E-04
(PID.TID 0000.0001) %MON dynstat_wvel_mean            =   4.4749891746590E-22
(PID.TID 0000.0001) %MON dynstat_wvel_sd              =   2.2142761286385E-05
(PID.TID 0000.0001) %MON dynstat_wvel_del2            =   8.7821841103283E-06
(PID.TID 0000.0001) %MON dynstat_theta_max            =   2.9795329339067E+01
(PID.TID 0000.0001) %MON dynstat_theta_min            =  -1.9321750324430E+00
(PID.TID 0000.0001) %MON dynstat_theta_mean           =   3.5892768750911E+00
(PID.TID 0000.0001) %MON dynstat_theta_sd             =   4.3344057297530E+00
(PID.TID 0000.0001) %MON dynstat_theta_del2           =   1.2866646829795E-01
(PID.TID 0000.0001) %MON dynstat_salt_max             =   3.7393304699317E+01
(PID.TID 0000.0001) %MON dynstat_salt_min             =   2.9745044965310E+01
(PID.TID 0000.0001) %MON dynstat_salt_mean            =   3.4715992246264E+01
(PID.TID 0000.0001) %MON dynstat_salt_sd              =   2.9369799314911E-01
(PID.TID 0000.0001) %MON dynstat_salt_del2            =   2.3206480248486E-02
(PID.TID 0000.0001) %MON advcfl_uvel_max              =   3.0291733952703E-02
(PID.TID 0000.0001) %MON advcfl_vvel_max              =   1.7326992193340E-02
(PID.TID 0000.0001) %MON advcfl_wvel_max              =   5.8633490440210E-02
(PID.TID 0000.0001) %MON advcfl_W_hf_max              =   6.4638145957637E-02
(PID.TID 0000.0001) %MON pe_b_mean                    =   2.6773698909273E-04
(PID.TID 0000.0001) %MON ke_max                       =   1.9951410514782E-02
(PID.TID 0000.0001) %MON ke_mean                      =   2.2736541764116E-04
(PID.TID 0000.0001) %MON ke_vol                       =   1.3226782436723E+18
(PID.TID 0000.0001) %MON vort_r_min                   =  -7.5083728493692E-07
(PID.TID 0000.0001) %MON vort_r_max                   =   7.2539055363965E-07
(PID.TID 0000.0001) %MON vort_a_mean                  =  -2.5205768004322E-05
(PID.TID 0000.0001) %MON vort_a_sd                    =   7.3403512274319E-05
(PID.TID 0000.0001) %MON vort_p_mean                  =  -3.1758667807215E-05
(PID.TID 0000.0001) %MON vort_p_sd                    =   1.3126268702521E-04
(PID.TID 0000.0001) %MON surfExpan_theta_mean         =   1.1797594261884E-05
(PID.TID 0000.0001) %MON surfExpan_salt_mean          =  -1.0264935370632E-07
(PID.TID 0000.0001) // =======================================================
(PID.TID 0000.0001) // End MONITOR dynamic field statistics
(PID.TID 0000.0001) // =======================================================
time,SST,SSS,fu,fv,Q,E-P,i0,i1,a,b =   3.8016E+06 -4.8218E-01  3.4431E+01 -1.5141E-02 -1.8956E-02  2.4132E+02  0.0000E+00     1     2  9.6667E-01  3.3333E-02
time,fu0,fu1,fu =   3.8016E+06 -3.5633E-02 -1.4435E-02 -1.5141E-02  9.6667E-01  3.3333E-02
 cg2d: Sum(rhs),rhsMax =   1.69447789133415E-13  9.26624592562628E+00
(PID.TID 0000.0001)                    cg2d_init_res =    3.00800826868400E-01
(PID.TID 0000.0001)                       cg2d_iters =    24
(PID.TID 0000.0001)                         cg2d_res =    3.64847426617967E-14
(PID.TID 0000.0001) // =======================================================
(PID.TID 0000.0001) // Begin MONITOR dynamic field statistics
(PID.TID 0000.0001) // =======================================================
(PID.TID 0000.0001) %MON time_tsnumber                =                    89
(PID.TID 0000.0001) %MON time_secondsf                =   3.8448000000000E+06
(PID.TID 0000.0001) %MON dynstat_eta_max              =   1.0351736319064E+00
(PID.TID 0000.0001) %MON dynstat_eta_min              =  -1.3262987798620E+00
(PID.TID 0000.0001) %MON dynstat_eta_mean             =   3.8495433774814E-16
(PID.TID 0000.0001) %MON dynstat_eta_sd               =   4.5827644077639E-01
(PID.TID 0000.0001) %MON dynstat_eta_del2             =   1.9115645443702E-02
(PID.TID 0000.0001) %MON dynstat_uvel_max             =   1.9584670690740E-01
(PID.TID 0000.0001) %MON dynstat_uvel_min             =  -1.5777107816153E-01
(PID.TID 0000.0001) %MON dynstat_uvel_mean            =   1.0027131920968E-03
(PID.TID 0000.0001) %MON dynstat_uvel_sd              =   1.6270648808316E-02
(PID.TID 0000.0001) %MON dynstat_uvel_del2            =   4.9038353558744E-03
(PID.TID 0000.0001) %MON dynstat_vvel_max             =   1.7718250161720E-01
(PID.TID 0000.0001) %MON dynstat_vvel_min             =  -1.5070682413243E-01
(PID.TID 0000.0001) %MON dynstat_vvel_mean            =  -4.0833219950554E-04
(PID.TID 0000.0001) %MON dynstat_vvel_sd              =   1.5148254887941E-02
(PID.TID 0000.0001) %MON dynstat_vvel_del2            =   4.4545763924905E-03
(PID.TID 0000.0001) %MON dynstat_wvel_max             =   3.8845096274840E-04
(PID.TID 0000.0001) %MON dynstat_wvel_min             =  -2.2087084171758E-04
(PID.TID 0000.0001) %MON dynstat_wvel_mean            =   4.2018180388944E-23
(PID.TID 0000.0001) %MON dynstat_wvel_sd              =   2.2049643610946E-05
(PID.TID 0000.0001) %MON dynstat_wvel_del2            =   8.7370906611073E-06
(PID.TID 0000.0001) %MON dynstat_theta_max            =   2.9798290433252E+01
(PID.TID 0000.0001) %MON dynstat_theta_min            =  -1.9322574089732E+00
(PID.TID 0000.0001) %MON dynstat_theta_mean           =   3.5892006915140E+00
(PID.TID 0000.0001) %MON dynstat_theta_sd             =   4.3342594387641E+00
(PID.TID 0000.0001) %MON dynstat_theta_del2           =   1.2867845367953E-01
(PID.TID 0000.0001) %MON dynstat_salt_max             =   3.7393012763223E+01
(PID.TID 0000.0001) %MON dynstat_salt_min             =   2.9743139001954E+01
(PID.TID 0000.0001) %MON dynstat_salt_mean            =   3.4715993921996E+01
(PID.TID 0000.0001) %MON dynstat_salt_sd              =   2.9368092782746E-01
(PID.TID 0000.0001) %MON dynstat_salt_del2            =   2.3182901628208E-02
(PID.TID 0000.0001) %MON advcfl_uvel_max              =   3.0222876158083E-02
(PID.TID 0000.0001) %MON advcfl_vvel_max              =   1.7211859199269E-02
(PID.TID 0000.0001) %MON advcfl_wvel_max              =   6.7435602026774E-02
(PID.TID 0000.0001) %MON advcfl_W_hf_max              =   6.5951889784059E-02
(PID.TID 0000.0001) %MON pe_b_mean                    =   2.6874244442960E-04
(PID.TID 0000.0001) %MON ke_max                       =   1.9441603042952E-02
(PID.TID 0000.0001) %MON ke_mean                      =   2.2382328179486E-04
(PID.TID 0000.0001) %MON ke_vol                       =   1.3226782436723E+18
(PID.TID 0000.0001) %MON vort_r_min                   =  -7.3564814364328E-07
(PID.TID 0000.0001) %MON vort_r_max                   =   7.2314597648409E-07
(PID.TID 0000.0001) %MON vort_a_mean                  =  -2.5205768033527E-05
(PID.TID 0000.0001) %MON vort_a_sd                    =   7.3403509047408E-05
(PID.TID 0000.0001) %MON vort_p_mean                  =  -3.1758667844013E-05
(PID.TID 0000.0001) %MON vort_p_sd                    =   1.3126265655396E-04
(PID.TID 0000.0001) %MON surfExpan_theta_mean         =   1.1336294534319E-05
(PID.TID 0000.0001) %MON surfExpan_salt_mean          =  -1.4077506258179E-07
(PID.TID 0000.0001) // =======================================================
(PID.TID 0000.0001) // End MONITOR dynamic field statistics
(PID.TID 0000.0001) // =======================================================
time,SST,SSS,fu,fv,Q,E-P,i0,i1,a,b =   3.8448E+06 -5.0702E-01  3.4426E+01 -1.4788E-02 -1.8296E-02  2.4090E+02  0.0000E+00     1     2  9.8333E-01  1.6667E-02
time,fu0,fu1,fu =   3.8448E+06 -3.5633E-02 -1.4435E-02 -1.4788E-02  9.8333E-01  1.6667E-02
 cg2d: Sum(rhs),rhsMax =   1.61620716809807E-13  8.78736553546055E+00
(PID.TID 0000.0001)                    cg2d_init_res =    3.21097867517426E-01
(PID.TID 0000.0001)                       cg2d_iters =    24
(PID.TID 0000.0001)                         cg2d_res =    4.36150209316722E-14
(PID.TID 0000.0001) // =======================================================
(PID.TID 0000.0001) // Begin MONITOR dynamic field statistics
(PID.TID 0000.0001) // =======================================================
(PID.TID 0000.0001) %MON time_tsnumber                =                    90
(PID.TID 0000.0001) %MON time_secondsf                =   3.8880000000000E+06
(PID.TID 0000.0001) %MON dynstat_eta_max              =   9.8132107422551E-01
(PID.TID 0000.0001) %MON dynstat_eta_min              =  -1.3387030135144E+00
(PID.TID 0000.0001) %MON dynstat_eta_mean             =  -2.4713978824290E-16
(PID.TID 0000.0001) %MON dynstat_eta_sd               =   4.5908453978484E-01
(PID.TID 0000.0001) %MON dynstat_eta_del2             =   1.9038321371000E-02
(PID.TID 0000.0001) %MON dynstat_uvel_max             =   1.9069519608109E-01
(PID.TID 0000.0001) %MON dynstat_uvel_min             =  -1.5808062568754E-01
(PID.TID 0000.0001) %MON dynstat_uvel_mean            =   1.0044447832314E-03
(PID.TID 0000.0001) %MON dynstat_uvel_sd              =   1.6080743637785E-02
(PID.TID 0000.0001) %MON dynstat_uvel_del2            =   4.8997108043983E-03
(PID.TID 0000.0001) %MON dynstat_vvel_max             =   1.7580083476492E-01
(PID.TID 0000.0001) %MON dynstat_vvel_min             =  -1.5090180584917E-01
(PID.TID 0000.0001) %MON dynstat_vvel_mean            =  -3.1998531806505E-04
(PID.TID 0000.0001) %MON dynstat_vvel_sd              =   1.5112478774158E-02
(PID.TID 0000.0001) %MON dynstat_vvel_del2            =   4.4419932205857E-03
(PID.TID 0000.0001) %MON dynstat_wvel_max             =   3.8862625810668E-04
(PID.TID 0000.0001) %MON dynstat_wvel_min             =  -2.1757764195860E-04
(PID.TID 0000.0001) %MON dynstat_wvel_mean            =  -7.8354454912397E-24
(PID.TID 0000.0001) %MON dynstat_wvel_sd              =   2.1957960980350E-05
(PID.TID 0000.0001) %MON dynstat_wvel_del2            =   8.6885064477564E-06
(PID.TID 0000.0001) %MON dynstat_theta_max            =   2.9801026919833E+01
(PID.TID 0000.0001) %MON dynstat_theta_min            =  -1.9323019916909E+00
(PID.TID 0000.0001) %MON dynstat_theta_mean           =   3.5891299236389E+00
(PID.TID 0000.0001) %MON dynstat_theta_sd             =   4.3341274644762E+00
(PID.TID 0000.0001) %MON dynstat_theta_del2           =   1.2869225170526E-01
(PID.TID 0000.0001) %MON dynstat_salt_max             =   3.7392694596905E+01
(PID.TID 0000.0001) %MON dynstat_salt_min             =   2.9741239968096E+01
(PID.TID 0000.0001) %MON dynstat_salt_mean            =   3.4715995793206E+01
(PID.TID 0000.0001) %MON dynstat_salt_sd              =   2.9366342121733E-01
(PID.TID 0000.0001) %MON dynstat_salt_del2            =   2.3159300205449E-02
(PID.TID 0000.0001) %MON advcfl_uvel_max              =   3.0151969052029E-02
(PID.TID 0000.0001) %MON advcfl_vvel_max              =   1.7077641344206E-02
(PID.TID 0000.0001) %MON advcfl_wvel_max              =   7.7547683060558E-02
(PID.TID 0000.0001) %MON advcfl_W_hf_max              =   7.5342310162567E-02
(PID.TID 0000.0001) %MON pe_b_mean                    =   2.6969105080201E-04
(PID.TID 0000.0001) %MON ke_max                       =   1.8853913973177E-02
(PID.TID 0000.0001) %MON ke_mean                      =   2.2051876758221E-04
(PID.TID 0000.0001) %MON ke_vol                       =   1.3226782436723E+18
(PID.TID 0000.0001) %MON vort_r_min                   =  -7.2136501560609E-07
(PID.TID 0000.0001) %MON vort_r_max                   =   7.2000002274213E-07
(PID.TID 0000.0001) %MON vort_a_mean                  =  -2.5205768064977E-05
(PID.TID 0000.0001) %MON vort_a_sd                    =   7.3403505079443E-05
(PID.TID 0000.0001) %MON vort_p_mean                  =  -3.1758667883638E-05
(PID.TID 0000.0001) %MON vort_p_sd                    =   1.3126262092057E-04
(PID.TID 0000.0001) %MON surfExpan_theta_mean         =   1.0866824463582E-05
(PID.TID 0000.0001) %MON surfExpan_salt_mean          =  -1.6573970863921E-07
(PID.TID 0000.0001) // =======================================================
(PID.TID 0000.0001) // End MONITOR dynamic field statistics
(PID.TID 0000.0001) // =======================================================
 S/R EXTERNAL_FIELDS_LOAD: Reading new data  3888000. 90
(PID.TID 0000.0001)  MDSREADFIELD: opening global file: trenberth_taux.bin
(PID.TID 0000.0001)  MDSREADFIELD: opening global file: trenberth_taux.bin
(PID.TID 0000.0001)  MDSREADFIELD: opening global file: trenberth_tauy.bin
(PID.TID 0000.0001)  MDSREADFIELD: opening global file: trenberth_tauy.bin
(PID.TID 0000.0001)  MDSREADFIELD: opening global file: ncep_qnet.bin
(PID.TID 0000.0001)  MDSREADFIELD: opening global file: ncep_qnet.bin
(PID.TID 0000.0001)  MDSREADFIELD: opening global file: lev_sst.bin
(PID.TID 0000.0001)  MDSREADFIELD: opening global file: lev_sst.bin
(PID.TID 0000.0001)  MDSREADFIELD: opening global file: lev_sss.bin
(PID.TID 0000.0001)  MDSREADFIELD: opening global file: lev_sss.bin
time,SST,SSS,fu,fv,Q,E-P,i0,i1,a,b =   3.8880E+06 -5.3186E-01  3.4421E+01 -1.4435E-02 -1.7636E-02  2.4048E+02  0.0000E+00     2     3  0.0000E+00  1.0000E+00
time,fu0,fu1,fu =   3.8880E+06 -1.4435E-02 -2.7199E-02 -1.4435E-02  0.0000E+00  1.0000E+00
 cg2d: Sum(rhs),rhsMax =  -6.16035000788884E-14  8.25636774540552E+00
(PID.TID 0000.0001)                    cg2d_init_res =    3.45114615023290E-01
(PID.TID 0000.0001)                       cg2d_iters =    24
(PID.TID 0000.0001)                         cg2d_res =    5.11145018652949E-14
(PID.TID 0000.0001) // =======================================================
(PID.TID 0000.0001) // Begin MONITOR dynamic field statistics
(PID.TID 0000.0001) // =======================================================
(PID.TID 0000.0001) %MON time_tsnumber                =                    91
(PID.TID 0000.0001) %MON time_secondsf                =   3.9312000000000E+06
(PID.TID 0000.0001) %MON dynstat_eta_max              =   9.2167333918680E-01
(PID.TID 0000.0001) %MON dynstat_eta_min              =  -1.3506212036318E+00
(PID.TID 0000.0001) %MON dynstat_eta_mean             =   6.1744959462413E-17
(PID.TID 0000.0001) %MON dynstat_eta_sd               =   4.5986486919162E-01
(PID.TID 0000.0001) %MON dynstat_eta_del2             =   1.8943281118002E-02
(PID.TID 0000.0001) %MON dynstat_uvel_max             =   1.8512922895062E-01
(PID.TID 0000.0001) %MON dynstat_uvel_min             =  -1.5821292123877E-01
(PID.TID 0000.0001) %MON dynstat_uvel_mean            =   1.0033228211707E-03
(PID.TID 0000.0001) %MON dynstat_uvel_sd              =   1.5906354858622E-02
(PID.TID 0000.0001) %MON dynstat_uvel_del2            =   4.8941956335621E-03
(PID.TID 0000.0001) %MON dynstat_vvel_max             =   1.7424416276231E-01
(PID.TID 0000.0001) %MON dynstat_vvel_min             =  -1.5103678842475E-01
(PID.TID 0000.0001) %MON dynstat_vvel_mean            =  -2.2989615163124E-04
(PID.TID 0000.0001) %MON dynstat_vvel_sd              =   1.5076224316661E-02
(PID.TID 0000.0001) %MON dynstat_vvel_del2            =   4.4283759351404E-03
(PID.TID 0000.0001) %MON dynstat_wvel_max             =   3.8862169307022E-04
(PID.TID 0000.0001) %MON dynstat_wvel_min             =  -2.1430758397277E-04
(PID.TID 0000.0001) %MON dynstat_wvel_mean            =  -6.1155581837199E-23
(PID.TID 0000.0001) %MON dynstat_wvel_sd              =   2.1865057836755E-05
(PID.TID 0000.0001) %MON dynstat_wvel_del2            =   8.6363606543167E-06
(PID.TID 0000.0001) %MON dynstat_theta_max            =   2.9803581067448E+01
(PID.TID 0000.0001) %MON dynstat_theta_min            =  -1.9323457375289E+00
(PID.TID 0000.0001) %MON dynstat_theta_mean           =   3.5890644929135E+00
(PID.TID 0000.0001) %MON dynstat_theta_sd             =   4.3340094426369E+00
(PID.TID 0000.0001) %MON dynstat_theta_del2           =   1.2870689695223E-01
(PID.TID 0000.0001) %MON dynstat_salt_max             =   3.7392353495494E+01
(PID.TID 0000.0001) %MON dynstat_salt_min             =   2.9739348049791E+01
(PID.TID 0000.0001) %MON dynstat_salt_mean            =   3.4715997731498E+01
(PID.TID 0000.0001) %MON dynstat_salt_sd              =   2.9364526325181E-01
(PID.TID 0000.0001) %MON dynstat_salt_del2            =   2.3134299486146E-02
(PID.TID 0000.0001) %MON advcfl_uvel_max              =   3.0078802200043E-02
(PID.TID 0000.0001) %MON advcfl_vvel_max              =   1.6926423142161E-02
(PID.TID 0000.0001) %MON advcfl_wvel_max              =   8.5892738455740E-02
(PID.TID 0000.0001) %MON advcfl_W_hf_max              =   8.2899063416406E-02
(PID.TID 0000.0001) %MON pe_b_mean                    =   2.7060864524884E-04
(PID.TID 0000.0001) %MON ke_max                       =   1.8198609443774E-02
(PID.TID 0000.0001) %MON ke_mean                      =   2.1746988979423E-04
(PID.TID 0000.0001) %MON ke_vol                       =   1.3226782436723E+18
(PID.TID 0000.0001) %MON vort_r_min                   =  -7.0797476141424E-07
(PID.TID 0000.0001) %MON vort_r_max                   =   7.1603621876512E-07
(PID.TID 0000.0001) %MON vort_a_mean                  =  -2.5205768098283E-05
(PID.TID 0000.0001) %MON vort_a_sd                    =   7.3403500446235E-05
(PID.TID 0000.0001) %MON vort_p_mean                  =  -3.1758667925604E-05
(PID.TID 0000.0001) %MON vort_p_sd                    =   1.3126258012908E-04
(PID.TID 0000.0001) %MON surfExpan_theta_mean         =   1.0397078983340E-05
(PID.TID 0000.0001) %MON surfExpan_salt_mean          =  -1.7827747341722E-07
(PID.TID 0000.0001) // =======================================================
(PID.TID 0000.0001) // End MONITOR dynamic field statistics
(PID.TID 0000.0001) // =======================================================
time,SST,SSS,fu,fv,Q,E-P,i0,i1,a,b =   3.9312E+06 -5.2606E-01  3.4424E+01 -1.4647E-02 -1.7351E-02  2.4006E+02  0.0000E+00     2     3  1.6667E-02  9.8333E-01
time,fu0,fu1,fu =   3.9312E+06 -1.4435E-02 -2.7199E-02 -1.4647E-02  1.6667E-02  9.8333E-01
 cg2d: Sum(rhs),rhsMax =  -4.98212582300539E-15  7.68566216513986E+00
(PID.TID 0000.0001)                    cg2d_init_res =    3.72769254605740E-01
(PID.TID 0000.0001)                       cg2d_iters =    24
(PID.TID 0000.0001)                         cg2d_res =    5.81322619791758E-14
(PID.TID 0000.0001) // =======================================================
(PID.TID 0000.0001) // Begin MONITOR dynamic field statistics
(PID.TID 0000.0001) // =======================================================
(PID.TID 0000.0001) %MON time_tsnumber                =                    92
(PID.TID 0000.0001) %MON time_secondsf                =   3.9744000000000E+06
(PID.TID 0000.0001) %MON dynstat_eta_max              =   8.5761811789549E-01
(PID.TID 0000.0001) %MON dynstat_eta_min              =  -1.3615419788481E+00
(PID.TID 0000.0001) %MON dynstat_eta_mean             =  -1.0906064121678E-16
(PID.TID 0000.0001) %MON dynstat_eta_sd               =   4.6063835588992E-01
(PID.TID 0000.0001) %MON dynstat_eta_del2             =   1.8829245587940E-02
(PID.TID 0000.0001) %MON dynstat_uvel_max             =   1.7928007282884E-01
(PID.TID 0000.0001) %MON dynstat_uvel_min             =  -1.5818462691728E-01
(PID.TID 0000.0001) %MON dynstat_uvel_mean            =   9.9968540964953E-04
(PID.TID 0000.0001) %MON dynstat_uvel_sd              =   1.5749721047200E-02
(PID.TID 0000.0001) %MON dynstat_uvel_del2            =   4.8867498430512E-03
(PID.TID 0000.0001) %MON dynstat_vvel_max             =   1.7254668323200E-01
(PID.TID 0000.0001) %MON dynstat_vvel_min             =  -1.5109885231381E-01
(PID.TID 0000.0001) %MON dynstat_vvel_mean            =  -1.3768518490164E-04
(PID.TID 0000.0001) %MON dynstat_vvel_sd              =   1.5038664810135E-02
(PID.TID 0000.0001) %MON dynstat_vvel_del2            =   4.4124158234652E-03
(PID.TID 0000.0001) %MON dynstat_wvel_max             =   3.8841261611985E-04
(PID.TID 0000.0001) %MON dynstat_wvel_min             =  -2.1108466414425E-04
(PID.TID 0000.0001) %MON dynstat_wvel_mean            =   2.2590725423306E-22
(PID.TID 0000.0001) %MON dynstat_wvel_sd              =   2.1768601150036E-05
(PID.TID 0000.0001) %MON dynstat_wvel_del2            =   8.5813238850445E-06
(PID.TID 0000.0001) %MON dynstat_theta_max            =   2.9805945213043E+01
(PID.TID 0000.0001) %MON dynstat_theta_min            =  -1.9322044623389E+00
(PID.TID 0000.0001) %MON dynstat_theta_mean           =   3.5890038206275E+00
(PID.TID 0000.0001) %MON dynstat_theta_sd             =   4.3339033422164E+00
(PID.TID 0000.0001) %MON dynstat_theta_del2           =   1.2870416992053E-01
(PID.TID 0000.0001) %MON dynstat_salt_max             =   3.7391992544271E+01
(PID.TID 0000.0001) %MON dynstat_salt_min             =   2.9737464243633E+01
(PID.TID 0000.0001) %MON dynstat_salt_mean            =   3.4715999621488E+01
(PID.TID 0000.0001) %MON dynstat_salt_sd              =   2.9362624677690E-01
(PID.TID 0000.0001) %MON dynstat_salt_del2            =   2.3108447709326E-02
(PID.TID 0000.0001) %MON advcfl_uvel_max              =   3.0003119622877E-02
(PID.TID 0000.0001) %MON advcfl_vvel_max              =   1.6761526617941E-02
(PID.TID 0000.0001) %MON advcfl_wvel_max              =   9.2239518659480E-02
(PID.TID 0000.0001) %MON advcfl_W_hf_max              =   8.8533351227959E-02
(PID.TID 0000.0001) %MON pe_b_mean                    =   2.7151973122978E-04
(PID.TID 0000.0001) %MON ke_max                       =   1.7497690420885E-02
(PID.TID 0000.0001) %MON ke_mean                      =   2.1469088072935E-04
(PID.TID 0000.0001) %MON ke_vol                       =   1.3226782436723E+18
(PID.TID 0000.0001) %MON vort_r_min                   =  -6.9559892169581E-07
(PID.TID 0000.0001) %MON vort_r_max                   =   7.1140517909375E-07
(PID.TID 0000.0001) %MON vort_a_mean                  =  -2.5205768132532E-05
(PID.TID 0000.0001) %MON vort_a_sd                    =   7.3403495242724E-05
(PID.TID 0000.0001) %MON vort_p_mean                  =  -3.1758667968757E-05
(PID.TID 0000.0001) %MON vort_p_sd                    =   1.3126253425086E-04
(PID.TID 0000.0001) %MON surfExpan_theta_mean         =   9.9295272620712E-06
(PID.TID 0000.0001) %MON surfExpan_salt_mean          =  -1.8027179004370E-07
(PID.TID 0000.0001) // =======================================================
(PID.TID 0000.0001) // End MONITOR dynamic field statistics
(PID.TID 0000.0001) // =======================================================
time,SST,SSS,fu,fv,Q,E-P,i0,i1,a,b =   3.9744E+06 -5.2026E-01  3.4426E+01 -1.4860E-02 -1.7067E-02  2.3964E+02  0.0000E+00     2     3  3.3333E-02  9.6667E-01
time,fu0,fu1,fu =   3.9744E+06 -1.4435E-02 -2.7199E-02 -1.4860E-02  3.3333E-02  9.6667E-01
 cg2d: Sum(rhs),rhsMax =   4.67972882667311E-13  7.08797888964291E+00
(PID.TID 0000.0001)                    cg2d_init_res =    4.04130333517225E-01
(PID.TID 0000.0001)                       cg2d_iters =    24
(PID.TID 0000.0001)                         cg2d_res =    6.51791035986727E-14
(PID.TID 0000.0001) // =======================================================
(PID.TID 0000.0001) // Begin MONITOR dynamic field statistics
(PID.TID 0000.0001) // =======================================================
(PID.TID 0000.0001) %MON time_tsnumber                =                    93
(PID.TID 0000.0001) %MON time_secondsf                =   4.0176000000000E+06
(PID.TID 0000.0001) %MON dynstat_eta_max              =   7.9058001310048E-01
(PID.TID 0000.0001) %MON dynstat_eta_min              =  -1.3710353571660E+00
(PID.TID 0000.0001) %MON dynstat_eta_mean             =  -8.9448444267269E-17
(PID.TID 0000.0001) %MON dynstat_eta_sd               =   4.6142341794261E-01
(PID.TID 0000.0001) %MON dynstat_eta_del2             =   1.8722834913932E-02
(PID.TID 0000.0001) %MON dynstat_uvel_max             =   1.7319419619410E-01
(PID.TID 0000.0001) %MON dynstat_uvel_min             =  -1.5801339601824E-01
(PID.TID 0000.0001) %MON dynstat_uvel_mean            =   9.9388896492718E-04
(PID.TID 0000.0001) %MON dynstat_uvel_sd              =   1.5612815935317E-02
(PID.TID 0000.0001) %MON dynstat_uvel_del2            =   4.8782875724342E-03
(PID.TID 0000.0001) %MON dynstat_vvel_max             =   1.7072796730444E-01
(PID.TID 0000.0001) %MON dynstat_vvel_min             =  -1.5107601223317E-01
(PID.TID 0000.0001) %MON dynstat_vvel_mean            =  -4.3116884689945E-05
(PID.TID 0000.0001) %MON dynstat_vvel_sd              =   1.4999199444711E-02
(PID.TID 0000.0001) %MON dynstat_vvel_del2            =   4.3946295792373E-03
(PID.TID 0000.0001) %MON dynstat_wvel_max             =   3.8797433715347E-04
(PID.TID 0000.0001) %MON dynstat_wvel_min             =  -2.0792967173210E-04
(PID.TID 0000.0001) %MON dynstat_wvel_mean            =   3.1877772382083E-22
(PID.TID 0000.0001) %MON dynstat_wvel_sd              =   2.1666860832575E-05
(PID.TID 0000.0001) %MON dynstat_wvel_del2            =   8.5212611271308E-06
(PID.TID 0000.0001) %MON dynstat_theta_max            =   2.9808199449147E+01
(PID.TID 0000.0001) %MON dynstat_theta_min            =  -1.9320859300202E+00
(PID.TID 0000.0001) %MON dynstat_theta_mean           =   3.5889479753490E+00
(PID.TID 0000.0001) %MON dynstat_theta_sd             =   4.3338089627507E+00
(PID.TID 0000.0001) %MON dynstat_theta_del2           =   1.2869596182741E-01
(PID.TID 0000.0001) %MON dynstat_salt_max             =   3.7391615254150E+01
(PID.TID 0000.0001) %MON dynstat_salt_min             =   2.9735589871200E+01
(PID.TID 0000.0001) %MON dynstat_salt_mean            =   3.4716001374766E+01
(PID.TID 0000.0001) %MON dynstat_salt_sd              =   2.9360592942177E-01
(PID.TID 0000.0001) %MON dynstat_salt_del2            =   2.3084545402397E-02
(PID.TID 0000.0001) %MON advcfl_uvel_max              =   2.9924614488008E-02
(PID.TID 0000.0001) %MON advcfl_vvel_max              =   1.6584852949926E-02
(PID.TID 0000.0001) %MON advcfl_wvel_max              =   9.6534870904816E-02
(PID.TID 0000.0001) %MON advcfl_W_hf_max              =   9.2194003214454E-02
(PID.TID 0000.0001) %MON pe_b_mean                    =   2.7244601745008E-04
(PID.TID 0000.0001) %MON ke_max                       =   1.7082727024886E-02
(PID.TID 0000.0001) %MON ke_mean                      =   2.1219506278839E-04
(PID.TID 0000.0001) %MON ke_vol                       =   1.3226782436723E+18
(PID.TID 0000.0001) %MON vort_r_min                   =  -6.8434488373599E-07
(PID.TID 0000.0001) %MON vort_r_max                   =   7.0617940282254E-07
(PID.TID 0000.0001) %MON vort_a_mean                  =  -2.5205768167625E-05
(PID.TID 0000.0001) %MON vort_a_sd                    =   7.3403489566824E-05
(PID.TID 0000.0001) %MON vort_p_mean                  =  -3.1758668012973E-05
(PID.TID 0000.0001) %MON vort_p_sd                    =   1.3126248348521E-04
(PID.TID 0000.0001) %MON surfExpan_theta_mean         =   9.4682484132244E-06
(PID.TID 0000.0001) %MON surfExpan_salt_mean          =  -1.7325252784591E-07
(PID.TID 0000.0001) // =======================================================
(PID.TID 0000.0001) // End MONITOR dynamic field statistics
(PID.TID 0000.0001) // =======================================================
time,SST,SSS,fu,fv,Q,E-P,i0,i1,a,b =   4.0176E+06 -5.1446E-01  3.4429E+01 -1.5073E-02 -1.6783E-02  2.3923E+02  0.0000E+00     2     3  5.0000E-02  9.5000E-01
time,fu0,fu1,fu =   4.0176E+06 -1.4435E-02 -2.7199E-02 -1.5073E-02  5.0000E-02  9.5000E-01
 cg2d: Sum(rhs),rhsMax =  -3.02410874120085E-13  6.77027622497841E+00
(PID.TID 0000.0001)                    cg2d_init_res =    4.20314746915193E-01
(PID.TID 0000.0001)                       cg2d_iters =    24
(PID.TID 0000.0001)                         cg2d_res =    6.93433080687315E-14
(PID.TID 0000.0001) // =======================================================
(PID.TID 0000.0001) // Begin MONITOR dynamic field statistics
(PID.TID 0000.0001) // =======================================================
(PID.TID 0000.0001) %MON time_tsnumber                =                    94
(PID.TID 0000.0001) %MON time_secondsf                =   4.0608000000000E+06
(PID.TID 0000.0001) %MON dynstat_eta_max              =   7.6205426132373E-01
(PID.TID 0000.0001) %MON dynstat_eta_min              =  -1.3787761092109E+00
(PID.TID 0000.0001) %MON dynstat_eta_mean             =   1.2062645484910E-16
(PID.TID 0000.0001) %MON dynstat_eta_sd               =   4.6223509608217E-01
(PID.TID 0000.0001) %MON dynstat_eta_del2             =   1.8618847187477E-02
(PID.TID 0000.0001) %MON dynstat_uvel_max             =   1.6694452907741E-01
(PID.TID 0000.0001) %MON dynstat_uvel_min             =  -1.5771692289056E-01
(PID.TID 0000.0001) %MON dynstat_uvel_mean            =   9.8631882524145E-04
(PID.TID 0000.0001) %MON dynstat_uvel_sd              =   1.5497466815478E-02
(PID.TID 0000.0001) %MON dynstat_uvel_del2            =   4.8685143928868E-03
(PID.TID 0000.0001) %MON dynstat_vvel_max             =   1.6881301297910E-01
(PID.TID 0000.0001) %MON dynstat_vvel_min             =  -1.5095768366106E-01
(PID.TID 0000.0001) %MON dynstat_vvel_mean            =   5.3904511946037E-05
(PID.TID 0000.0001) %MON dynstat_vvel_sd              =   1.4957252499602E-02
(PID.TID 0000.0001) %MON dynstat_vvel_del2            =   4.3761778560152E-03
(PID.TID 0000.0001) %MON dynstat_wvel_max             =   3.8728264597727E-04
(PID.TID 0000.0001) %MON dynstat_wvel_min             =  -2.0486069258615E-04
(PID.TID 0000.0001) %MON dynstat_wvel_mean            =  -4.7951499792502E-22
(PID.TID 0000.0001) %MON dynstat_wvel_sd              =   2.1558817495233E-05
(PID.TID 0000.0001) %MON dynstat_wvel_del2            =   8.4566675792671E-06
(PID.TID 0000.0001) %MON dynstat_theta_max            =   2.9810405206825E+01
(PID.TID 0000.0001) %MON dynstat_theta_min            =  -1.9319237837746E+00
(PID.TID 0000.0001) %MON dynstat_theta_mean           =   3.5888968151845E+00
(PID.TID 0000.0001) %MON dynstat_theta_sd             =   4.3337269910029E+00
(PID.TID 0000.0001) %MON dynstat_theta_del2           =   1.2874884612207E-01
(PID.TID 0000.0001) %MON dynstat_salt_max             =   3.7391224649996E+01
(PID.TID 0000.0001) %MON dynstat_salt_min             =   2.9733726466374E+01
(PID.TID 0000.0001) %MON dynstat_salt_mean            =   3.4716002923662E+01
(PID.TID 0000.0001) %MON dynstat_salt_sd              =   2.9358443389163E-01
(PID.TID 0000.0001) %MON dynstat_salt_del2            =   2.3073353499649E-02
(PID.TID 0000.0001) %MON advcfl_uvel_max              =   2.9842914804882E-02
(PID.TID 0000.0001) %MON advcfl_vvel_max              =   1.6398830493307E-02
(PID.TID 0000.0001) %MON advcfl_wvel_max              =   9.8758958564715E-02
(PID.TID 0000.0001) %MON advcfl_W_hf_max              =   9.3865790716147E-02
(PID.TID 0000.0001) %MON pe_b_mean                    =   2.7340536614150E-04
(PID.TID 0000.0001) %MON ke_max                       =   1.6804338309658E-02
(PID.TID 0000.0001) %MON ke_mean                      =   2.0999425796991E-04
(PID.TID 0000.0001) %MON ke_vol                       =   1.3226782436723E+18
(PID.TID 0000.0001) %MON vort_r_min                   =  -6.7418030340224E-07
(PID.TID 0000.0001) %MON vort_r_max                   =   7.0045621277511E-07
(PID.TID 0000.0001) %MON vort_a_mean                  =  -2.5205768203312E-05
(PID.TID 0000.0001) %MON vort_a_sd                    =   7.3403483527047E-05
(PID.TID 0000.0001) %MON vort_p_mean                  =  -3.1758668057938E-05
(PID.TID 0000.0001) %MON vort_p_sd                    =   1.3126242810463E-04
(PID.TID 0000.0001) %MON surfExpan_theta_mean         =   9.0178173251619E-06
(PID.TID 0000.0001) %MON surfExpan_salt_mean          =  -1.5905274339046E-07
(PID.TID 0000.0001) // =======================================================
(PID.TID 0000.0001) // End MONITOR dynamic field statistics
(PID.TID 0000.0001) // =======================================================
time,SST,SSS,fu,fv,Q,E-P,i0,i1,a,b =   4.0608E+06 -5.0866E-01  3.4432E+01 -1.5286E-02 -1.6498E-02  2.3881E+02  0.0000E+00     2     3  6.6667E-02  9.3333E-01
time,fu0,fu1,fu =   4.0608E+06 -1.4435E-02 -2.7199E-02 -1.5286E-02  6.6667E-02  9.3333E-01
 cg2d: Sum(rhs),rhsMax =  -2.73531197692023E-13  6.73808714268623E+00
(PID.TID 0000.0001)                    cg2d_init_res =    4.16725834852379E-01
(PID.TID 0000.0001)                       cg2d_iters =    24
(PID.TID 0000.0001)                         cg2d_res =    7.13640763788426E-14
(PID.TID 0000.0001) // =======================================================
(PID.TID 0000.0001) // Begin MONITOR dynamic field statistics
(PID.TID 0000.0001) // =======================================================
(PID.TID 0000.0001) %MON time_tsnumber                =                    95
(PID.TID 0000.0001) %MON time_secondsf                =   4.1040000000000E+06
(PID.TID 0000.0001) %MON dynstat_eta_max              =   7.5854582091725E-01
(PID.TID 0000.0001) %MON dynstat_eta_min              =  -1.3845490539979E+00
(PID.TID 0000.0001) %MON dynstat_eta_mean             =   1.2465258648015E-17
(PID.TID 0000.0001) %MON dynstat_eta_sd               =   4.6308447692712E-01
(PID.TID 0000.0001) %MON dynstat_eta_del2             =   1.8593135673207E-02
(PID.TID 0000.0001) %MON dynstat_uvel_max             =   1.6420561416648E-01
(PID.TID 0000.0001) %MON dynstat_uvel_min             =  -1.5731220631135E-01
(PID.TID 0000.0001) %MON dynstat_uvel_mean            =   9.7737546259522E-04
(PID.TID 0000.0001) %MON dynstat_uvel_sd              =   1.5405217195260E-02
(PID.TID 0000.0001) %MON dynstat_uvel_del2            =   4.8572437782165E-03
(PID.TID 0000.0001) %MON dynstat_vvel_max             =   1.6685093518847E-01
(PID.TID 0000.0001) %MON dynstat_vvel_min             =  -1.5073508746008E-01
(PID.TID 0000.0001) %MON dynstat_vvel_mean            =   1.5331988276688E-04
(PID.TID 0000.0001) %MON dynstat_vvel_sd              =   1.4912417893216E-02
(PID.TID 0000.0001) %MON dynstat_vvel_del2            =   4.3577863053206E-03
(PID.TID 0000.0001) %MON dynstat_wvel_max             =   3.8631505226019E-04
(PID.TID 0000.0001) %MON dynstat_wvel_min             =  -2.0189367935604E-04
(PID.TID 0000.0001) %MON dynstat_wvel_mean            =   1.5361447477505E-22
(PID.TID 0000.0001) %MON dynstat_wvel_sd              =   2.1444130945067E-05
(PID.TID 0000.0001) %MON dynstat_wvel_del2            =   8.3929988989547E-06
(PID.TID 0000.0001) %MON dynstat_theta_max            =   2.9812625400230E+01
(PID.TID 0000.0001) %MON dynstat_theta_min            =  -1.9317129278481E+00
(PID.TID 0000.0001) %MON dynstat_theta_mean           =   3.5888501983439E+00
(PID.TID 0000.0001) %MON dynstat_theta_sd             =   4.3336577799419E+00
(PID.TID 0000.0001) %MON dynstat_theta_del2           =   1.2875316490902E-01
(PID.TID 0000.0001) %MON dynstat_salt_max             =   3.7390823421272E+01
(PID.TID 0000.0001) %MON dynstat_salt_min             =   2.9731875812594E+01
(PID.TID 0000.0001) %MON dynstat_salt_mean            =   3.4716004226560E+01
(PID.TID 0000.0001) %MON dynstat_salt_sd              =   2.9356245016798E-01
(PID.TID 0000.0001) %MON dynstat_salt_del2            =   2.3047703415270E-02
(PID.TID 0000.0001) %MON advcfl_uvel_max              =   2.9757552132461E-02
(PID.TID 0000.0001) %MON advcfl_vvel_max              =   1.6208230369920E-02
(PID.TID 0000.0001) %MON advcfl_wvel_max              =   9.9039955076256E-02
(PID.TID 0000.0001) %MON advcfl_W_hf_max              =   9.3570744912435E-02
(PID.TID 0000.0001) %MON pe_b_mean                    =   2.7441108226234E-04
(PID.TID 0000.0001) %MON ke_max                       =   1.6507193228769E-02
(PID.TID 0000.0001) %MON ke_mean                      =   2.0809916098991E-04
(PID.TID 0000.0001) %MON ke_vol                       =   1.3226782436723E+18
(PID.TID 0000.0001) %MON vort_r_min                   =  -6.6509603978536E-07
(PID.TID 0000.0001) %MON vort_r_max                   =   6.9433068592432E-07
(PID.TID 0000.0001) %MON vort_a_mean                  =  -2.5205768239386E-05
(PID.TID 0000.0001) %MON vort_a_sd                    =   7.3403477237996E-05
(PID.TID 0000.0001) %MON vort_p_mean                  =  -3.1758668103390E-05
(PID.TID 0000.0001) %MON vort_p_sd                    =   1.3126236847049E-04
(PID.TID 0000.0001) %MON surfExpan_theta_mean         =   8.5794969846182E-06
(PID.TID 0000.0001) %MON surfExpan_salt_mean          =  -1.3999231333579E-07
(PID.TID 0000.0001) // =======================================================
(PID.TID 0000.0001) // End MONITOR dynamic field statistics
(PID.TID 0000.0001) // =======================================================
time,SST,SSS,fu,fv,Q,E-P,i0,i1,a,b =   4.1040E+06 -5.0286E-01  3.4434E+01 -1.5498E-02 -1.6214E-02  2.3839E+02  0.0000E+00     2     3  8.3333E-02  9.1667E-01
time,fu0,fu1,fu =   4.1040E+06 -1.4435E-02 -2.7199E-02 -1.5498E-02  8.3333E-02  9.1667E-01
 cg2d: Sum(rhs),rhsMax =   5.77302095017274E-13  6.70168363280562E+00
(PID.TID 0000.0001)                    cg2d_init_res =    4.10693235214928E-01
(PID.TID 0000.0001)                       cg2d_iters =    24
(PID.TID 0000.0001)                         cg2d_res =    7.16653588881019E-14
(PID.TID 0000.0001) // =======================================================
(PID.TID 0000.0001) // Begin MONITOR dynamic field statistics
(PID.TID 0000.0001) // =======================================================
(PID.TID 0000.0001) %MON time_tsnumber                =                    96
(PID.TID 0000.0001) %MON time_secondsf                =   4.1472000000000E+06
(PID.TID 0000.0001) %MON dynstat_eta_max              =   7.5463242150198E-01
(PID.TID 0000.0001) %MON dynstat_eta_min              =  -1.3882484408135E+00
(PID.TID 0000.0001) %MON dynstat_eta_mean             =   2.9652216699067E-17
(PID.TID 0000.0001) %MON dynstat_eta_sd               =   4.6397845796164E-01
(PID.TID 0000.0001) %MON dynstat_eta_del2             =   1.8630326336054E-02
(PID.TID 0000.0001) %MON dynstat_uvel_max             =   1.6264508701367E-01
(PID.TID 0000.0001) %MON dynstat_uvel_min             =  -1.5681493576638E-01
(PID.TID 0000.0001) %MON dynstat_uvel_mean            =   9.6746441113459E-04
(PID.TID 0000.0001) %MON dynstat_uvel_sd              =   1.5337214285086E-02
(PID.TID 0000.0001) %MON dynstat_uvel_del2            =   4.8442144269368E-03
(PID.TID 0000.0001) %MON dynstat_vvel_max             =   1.6716089345851E-01
(PID.TID 0000.0001) %MON dynstat_vvel_min             =  -1.5040164699138E-01
(PID.TID 0000.0001) %MON dynstat_vvel_mean            =   2.5490698727162E-04
(PID.TID 0000.0001) %MON dynstat_vvel_sd              =   1.4864528435826E-02
(PID.TID 0000.0001) %MON dynstat_vvel_del2            =   4.3386057804143E-03
(PID.TID 0000.0001) %MON dynstat_wvel_max             =   3.8505176947926E-04
(PID.TID 0000.0001) %MON dynstat_wvel_min             =  -1.9904254968678E-04
(PID.TID 0000.0001) %MON dynstat_wvel_mean            =   1.5013791820584E-22
(PID.TID 0000.0001) %MON dynstat_wvel_sd              =   2.1323275737679E-05
(PID.TID 0000.0001) %MON dynstat_wvel_del2            =   8.3295764149527E-06
(PID.TID 0000.0001) %MON dynstat_theta_max            =   2.9814921522825E+01
(PID.TID 0000.0001) %MON dynstat_theta_min            =  -1.9314502183941E+00
(PID.TID 0000.0001) %MON dynstat_theta_mean           =   3.5888078955269E+00
(PID.TID 0000.0001) %MON dynstat_theta_sd             =   4.3336007572169E+00
(PID.TID 0000.0001) %MON dynstat_theta_del2           =   1.2879771472271E-01
(PID.TID 0000.0001) %MON dynstat_salt_max             =   3.7390413940736E+01
(PID.TID 0000.0001) %MON dynstat_salt_min             =   2.9730039888251E+01
(PID.TID 0000.0001) %MON dynstat_salt_mean            =   3.4716005260785E+01
(PID.TID 0000.0001) %MON dynstat_salt_sd              =   2.9353906501140E-01
(PID.TID 0000.0001) %MON dynstat_salt_del2            =   2.3027230668952E-02
(PID.TID 0000.0001) %MON advcfl_uvel_max              =   2.9667976226490E-02
(PID.TID 0000.0001) %MON advcfl_vvel_max              =   1.6238340330288E-02
(PID.TID 0000.0001) %MON advcfl_wvel_max              =   9.7361732731028E-02
(PID.TID 0000.0001) %MON advcfl_W_hf_max              =   9.1366601446907E-02
(PID.TID 0000.0001) %MON pe_b_mean                    =   2.7547160192125E-04
(PID.TID 0000.0001) %MON ke_max                       =   1.6196408943123E-02
(PID.TID 0000.0001) %MON ke_mean                      =   2.0651904734893E-04
(PID.TID 0000.0001) %MON ke_vol                       =   1.3226782436723E+18
(PID.TID 0000.0001) %MON vort_r_min                   =  -6.7303814885420E-07
(PID.TID 0000.0001) %MON vort_r_max                   =   6.8789310983429E-07
(PID.TID 0000.0001) %MON vort_a_mean                  =  -2.5205768275685E-05
(PID.TID 0000.0001) %MON vort_a_sd                    =   7.3403470816929E-05
(PID.TID 0000.0001) %MON vort_p_mean                  =  -3.1758668149125E-05
(PID.TID 0000.0001) %MON vort_p_sd                    =   1.3126230500345E-04
(PID.TID 0000.0001) %MON surfExpan_theta_mean         =   8.1557410579266E-06
(PID.TID 0000.0001) %MON surfExpan_salt_mean          =  -1.1783905812755E-07
(PID.TID 0000.0001) // =======================================================
(PID.TID 0000.0001) // End MONITOR dynamic field statistics
(PID.TID 0000.0001) // =======================================================
time,SST,SSS,fu,fv,Q,E-P,i0,i1,a,b =   4.1472E+06 -4.9706E-01  3.4437E+01 -1.5711E-02 -1.5930E-02  2.3797E+02  0.0000E+00     2     3  1.0000E-01  9.0000E-01
time,fu0,fu1,fu =   4.1472E+06 -1.4435E-02 -2.7199E-02 -1.5711E-02  1.0000E-01  9.0000E-01
 cg2d: Sum(rhs),rhsMax =  -1.88543625156967E-13  6.66306743647577E+00
(PID.TID 0000.0001)                    cg2d_init_res =    4.02429529498490E-01
(PID.TID 0000.0001)                       cg2d_iters =    24
(PID.TID 0000.0001)                         cg2d_res =    7.13283413442918E-14
(PID.TID 0000.0001) // =======================================================
(PID.TID 0000.0001) // Begin MONITOR dynamic field statistics
(PID.TID 0000.0001) // =======================================================
(PID.TID 0000.0001) %MON time_tsnumber                =                    97
(PID.TID 0000.0001) %MON time_secondsf                =   4.1904000000000E+06
(PID.TID 0000.0001) %MON dynstat_eta_max              =   7.5130216800454E-01
(PID.TID 0000.0001) %MON dynstat_eta_min              =  -1.3898715592183E+00
(PID.TID 0000.0001) %MON dynstat_eta_mean             =   9.3628870903897E-17
(PID.TID 0000.0001) %MON dynstat_eta_sd               =   4.6491987289481E-01
(PID.TID 0000.0001) %MON dynstat_eta_del2             =   1.8696224893849E-02
(PID.TID 0000.0001) %MON dynstat_uvel_max             =   1.6044860698595E-01
(PID.TID 0000.0001) %MON dynstat_uvel_min             =  -1.5623899160539E-01
(PID.TID 0000.0001) %MON dynstat_uvel_mean            =   9.5698613231912E-04
(PID.TID 0000.0001) %MON dynstat_uvel_sd              =   1.5294099723665E-02
(PID.TID 0000.0001) %MON dynstat_uvel_del2            =   4.8305779740306E-03
(PID.TID 0000.0001) %MON dynstat_vvel_max             =   1.6730297441742E-01
(PID.TID 0000.0001) %MON dynstat_vvel_min             =  -1.4995319731273E-01
(PID.TID 0000.0001) %MON dynstat_vvel_mean            =   3.5828378337917E-04
(PID.TID 0000.0001) %MON dynstat_vvel_sd              =   1.4813704991683E-02
(PID.TID 0000.0001) %MON dynstat_vvel_del2            =   4.3183919106371E-03
(PID.TID 0000.0001) %MON dynstat_wvel_max             =   3.8347631518834E-04
(PID.TID 0000.0001) %MON dynstat_wvel_min             =  -1.9731892667211E-04
(PID.TID 0000.0001) %MON dynstat_wvel_mean            =   3.9605514012829E-23
(PID.TID 0000.0001) %MON dynstat_wvel_sd              =   2.1197423496647E-05
(PID.TID 0000.0001) %MON dynstat_wvel_del2            =   8.2648020546951E-06
(PID.TID 0000.0001) %MON dynstat_theta_max            =   2.9817350842029E+01
(PID.TID 0000.0001) %MON dynstat_theta_min            =  -1.9311346050740E+00
(PID.TID 0000.0001) %MON dynstat_theta_mean           =   3.5887697417343E+00
(PID.TID 0000.0001) %MON dynstat_theta_sd             =   4.3335562887241E+00
(PID.TID 0000.0001) %MON dynstat_theta_del2           =   1.2885691757445E-01
(PID.TID 0000.0001) %MON dynstat_salt_max             =   3.7389999866061E+01
(PID.TID 0000.0001) %MON dynstat_salt_min             =   2.9728220804746E+01
(PID.TID 0000.0001) %MON dynstat_salt_mean            =   3.4716006029627E+01
(PID.TID 0000.0001) %MON dynstat_salt_sd              =   2.9351494596703E-01
(PID.TID 0000.0001) %MON dynstat_salt_del2            =   2.3001632104491E-02
(PID.TID 0000.0001) %MON advcfl_uvel_max              =   2.9573533774680E-02
(PID.TID 0000.0001) %MON advcfl_vvel_max              =   1.6252142356094E-02
(PID.TID 0000.0001) %MON advcfl_wvel_max              =   9.3810013028533E-02
(PID.TID 0000.0001) %MON advcfl_W_hf_max              =   8.7345654057399E-02
(PID.TID 0000.0001) %MON pe_b_mean                    =   2.7659060289815E-04
(PID.TID 0000.0001) %MON ke_max                       =   1.5876728554326E-02
(PID.TID 0000.0001) %MON ke_mean                      =   2.0526118621533E-04
(PID.TID 0000.0001) %MON ke_vol                       =   1.3226782436723E+18
(PID.TID 0000.0001) %MON vort_r_min                   =  -6.8922627931758E-07
(PID.TID 0000.0001) %MON vort_r_max                   =   6.8122669489181E-07
(PID.TID 0000.0001) %MON vort_a_mean                  =  -2.5205768312084E-05
(PID.TID 0000.0001) %MON vort_a_sd                    =   7.3403464380511E-05
(PID.TID 0000.0001) %MON vort_p_mean                  =  -3.1758668194988E-05
(PID.TID 0000.0001) %MON vort_p_sd                    =   1.3126223818075E-04
(PID.TID 0000.0001) %MON surfExpan_theta_mean         =   7.7471003767246E-06
(PID.TID 0000.0001) %MON surfExpan_salt_mean          =  -9.4622673442777E-08
(PID.TID 0000.0001) // =======================================================
(PID.TID 0000.0001) // End MONITOR dynamic field statistics
(PID.TID 0000.0001) // =======================================================
time,SST,SSS,fu,fv,Q,E-P,i0,i1,a,b =   4.1904E+06 -4.9126E-01  3.4440E+01 -1.5924E-02 -1.5646E-02  2.3755E+02  0.0000E+00     2     3  1.1667E-01  8.8333E-01
time,fu0,fu1,fu =   4.1904E+06 -1.4435E-02 -2.7199E-02 -1.5924E-02  1.1667E-01  8.8333E-01
 cg2d: Sum(rhs),rhsMax =  -1.81230030982249E-13  6.62464365836824E+00
(PID.TID 0000.0001)                    cg2d_init_res =    3.92361384185919E-01
(PID.TID 0000.0001)                       cg2d_iters =    24
(PID.TID 0000.0001)                         cg2d_res =    7.06016482795647E-14
(PID.TID 0000.0001) // =======================================================
(PID.TID 0000.0001) // Begin MONITOR dynamic field statistics
(PID.TID 0000.0001) // =======================================================
(PID.TID 0000.0001) %MON time_tsnumber                =                    98
(PID.TID 0000.0001) %MON time_secondsf                =   4.2336000000000E+06
(PID.TID 0000.0001) %MON dynstat_eta_max              =   7.7912943526075E-01
(PID.TID 0000.0001) %MON dynstat_eta_min              =  -1.3895076868743E+00
(PID.TID 0000.0001) %MON dynstat_eta_mean             =  -2.4498534809979E-17
(PID.TID 0000.0001) %MON dynstat_eta_sd               =   4.6590795003595E-01
(PID.TID 0000.0001) %MON dynstat_eta_del2             =   1.8756555981472E-02
(PID.TID 0000.0001) %MON dynstat_uvel_max             =   1.5765073669947E-01
(PID.TID 0000.0001) %MON dynstat_uvel_min             =  -1.5559606269158E-01
(PID.TID 0000.0001) %MON dynstat_uvel_mean            =   9.4632798804763E-04
(PID.TID 0000.0001) %MON dynstat_uvel_sd              =   1.5275912081345E-02
(PID.TID 0000.0001) %MON dynstat_uvel_del2            =   4.8153179371262E-03
(PID.TID 0000.0001) %MON dynstat_vvel_max             =   1.6727476240851E-01
(PID.TID 0000.0001) %MON dynstat_vvel_min             =  -1.4938818585798E-01
(PID.TID 0000.0001) %MON dynstat_vvel_mean            =   4.6291810922947E-04
(PID.TID 0000.0001) %MON dynstat_vvel_sd              =   1.4760380516012E-02
(PID.TID 0000.0001) %MON dynstat_vvel_del2            =   4.2980218578736E-03
(PID.TID 0000.0001) %MON dynstat_wvel_max             =   3.8157620897447E-04
(PID.TID 0000.0001) %MON dynstat_wvel_min             =  -1.9690816171716E-04
(PID.TID 0000.0001) %MON dynstat_wvel_mean            =  -1.3632223005626E-22
(PID.TID 0000.0001) %MON dynstat_wvel_sd              =   2.1068332385865E-05
(PID.TID 0000.0001) %MON dynstat_wvel_del2            =   8.1939731159958E-06
(PID.TID 0000.0001) %MON dynstat_theta_max            =   2.9819963662963E+01
(PID.TID 0000.0001) %MON dynstat_theta_min            =  -1.9307670892224E+00
(PID.TID 0000.0001) %MON dynstat_theta_mean           =   3.5887355101831E+00
(PID.TID 0000.0001) %MON dynstat_theta_sd             =   4.3335251436122E+00
(PID.TID 0000.0001) %MON dynstat_theta_del2           =   1.2884713436640E-01
(PID.TID 0000.0001) %MON dynstat_salt_max             =   3.7389583289397E+01
(PID.TID 0000.0001) %MON dynstat_salt_min             =   2.9726420739615E+01
(PID.TID 0000.0001) %MON dynstat_salt_mean            =   3.4716006551112E+01
(PID.TID 0000.0001) %MON dynstat_salt_sd              =   2.9349012152021E-01
(PID.TID 0000.0001) %MON dynstat_salt_del2            =   2.2974754085510E-02
(PID.TID 0000.0001) %MON advcfl_uvel_max              =   2.9473488542265E-02
(PID.TID 0000.0001) %MON advcfl_vvel_max              =   1.6249401785661E-02
(PID.TID 0000.0001) %MON advcfl_wvel_max              =   8.8509117616334E-02
(PID.TID 0000.0001) %MON advcfl_W_hf_max              =   8.1633318555061E-02
(PID.TID 0000.0001) %MON pe_b_mean                    =   2.7776750789947E-04
(PID.TID 0000.0001) %MON ke_max                       =   1.5683259503499E-02
(PID.TID 0000.0001) %MON ke_mean                      =   2.0432995379530E-04
(PID.TID 0000.0001) %MON ke_vol                       =   1.3226782436723E+18
(PID.TID 0000.0001) %MON vort_r_min                   =  -7.0510622614465E-07
(PID.TID 0000.0001) %MON vort_r_max                   =   6.7440573206273E-07
(PID.TID 0000.0001) %MON vort_a_mean                  =  -2.5205768348487E-05
(PID.TID 0000.0001) %MON vort_a_sd                    =   7.3403458041895E-05
(PID.TID 0000.0001) %MON vort_p_mean                  =  -3.1758668240855E-05
(PID.TID 0000.0001) %MON vort_p_sd                    =   1.3126216852641E-04
(PID.TID 0000.0001) %MON surfExpan_theta_mean         =   7.3534598345747E-06
(PID.TID 0000.0001) %MON surfExpan_salt_mean          =  -7.2250770802586E-08
(PID.TID 0000.0001) // =======================================================
(PID.TID 0000.0001) // End MONITOR dynamic field statistics
(PID.TID 0000.0001) // =======================================================
time,SST,SSS,fu,fv,Q,E-P,i0,i1,a,b =   4.2336E+06 -4.8546E-01  3.4442E+01 -1.6137E-02 -1.5361E-02  2.3714E+02  0.0000E+00     2     3  1.3333E-01  8.6667E-01
time,fu0,fu1,fu =   4.2336E+06 -1.4435E-02 -2.7199E-02 -1.6137E-02  1.3333E-01  8.6667E-01
 cg2d: Sum(rhs),rhsMax =  -8.32903190861600E-13  6.75051763676786E+00
(PID.TID 0000.0001)                    cg2d_init_res =    3.72014794646072E-01
(PID.TID 0000.0001)                       cg2d_iters =    24
(PID.TID 0000.0001)                         cg2d_res =    6.81351042160235E-14
(PID.TID 0000.0001) // =======================================================
(PID.TID 0000.0001) // Begin MONITOR dynamic field statistics
(PID.TID 0000.0001) // =======================================================
(PID.TID 0000.0001) %MON time_tsnumber                =                    99
(PID.TID 0000.0001) %MON time_secondsf                =   4.2768000000000E+06
(PID.TID 0000.0001) %MON dynstat_eta_max              =   8.0296695222493E-01
(PID.TID 0000.0001) %MON dynstat_eta_min              =  -1.3873237396272E+00
(PID.TID 0000.0001) %MON dynstat_eta_mean             =   7.8190705891819E-17
(PID.TID 0000.0001) %MON dynstat_eta_sd               =   4.6693903727096E-01
(PID.TID 0000.0001) %MON dynstat_eta_del2             =   1.8828488189058E-02
(PID.TID 0000.0001) %MON dynstat_uvel_max             =   1.5428999514361E-01
(PID.TID 0000.0001) %MON dynstat_uvel_min             =  -1.5489539909433E-01
(PID.TID 0000.0001) %MON dynstat_uvel_mean            =   9.3585519269026E-04
(PID.TID 0000.0001) %MON dynstat_uvel_sd              =   1.5282014687470E-02
(PID.TID 0000.0001) %MON dynstat_uvel_del2            =   4.7989073660111E-03
(PID.TID 0000.0001) %MON dynstat_vvel_max             =   1.6707365743938E-01
(PID.TID 0000.0001) %MON dynstat_vvel_min             =  -1.4870779153800E-01
(PID.TID 0000.0001) %MON dynstat_vvel_mean            =   5.6814085751465E-04
(PID.TID 0000.0001) %MON dynstat_vvel_sd              =   1.4705298062145E-02
(PID.TID 0000.0001) %MON dynstat_vvel_del2            =   4.2776179672663E-03
(PID.TID 0000.0001) %MON dynstat_wvel_max             =   3.7934338569629E-04
(PID.TID 0000.0001) %MON dynstat_wvel_min             =  -1.9636187882029E-04
(PID.TID 0000.0001) %MON dynstat_wvel_mean            =  -4.1908150357121E-22
(PID.TID 0000.0001) %MON dynstat_wvel_sd              =   2.0938110289250E-05
(PID.TID 0000.0001) %MON dynstat_wvel_del2            =   8.1189634938963E-06
(PID.TID 0000.0001) %MON dynstat_theta_max            =   2.9822800816651E+01
(PID.TID 0000.0001) %MON dynstat_theta_min            =  -1.9303399564889E+00
(PID.TID 0000.0001) %MON dynstat_theta_mean           =   3.5887050462583E+00
(PID.TID 0000.0001) %MON dynstat_theta_sd             =   4.3335070093732E+00
(PID.TID 0000.0001) %MON dynstat_theta_del2           =   1.2883196768061E-01
(PID.TID 0000.0001) %MON dynstat_salt_max             =   3.7389164839606E+01
(PID.TID 0000.0001) %MON dynstat_salt_min             =   2.9724641874442E+01
(PID.TID 0000.0001) %MON dynstat_salt_mean            =   3.4716006865917E+01
(PID.TID 0000.0001) %MON dynstat_salt_sd              =   2.9346445221934E-01
(PID.TID 0000.0001) %MON dynstat_salt_del2            =   2.2947860678733E-02
(PID.TID 0000.0001) %MON advcfl_uvel_max              =   2.9367040172671E-02
(PID.TID 0000.0001) %MON advcfl_vvel_max              =   1.6229866050578E-02
(PID.TID 0000.0001) %MON advcfl_wvel_max              =   8.1616072498574E-02
(PID.TID 0000.0001) %MON advcfl_W_hf_max              =   7.4386822647241E-02
(PID.TID 0000.0001) %MON pe_b_mean                    =   2.7899830658492E-04
(PID.TID 0000.0001) %MON ke_max                       =   1.5581506248218E-02
(PID.TID 0000.0001) %MON ke_mean                      =   2.0372577215232E-04
(PID.TID 0000.0001) %MON ke_vol                       =   1.3226782436723E+18
(PID.TID 0000.0001) %MON vort_r_min                   =  -7.2051852201810E-07
(PID.TID 0000.0001) %MON vort_r_max                   =   6.6749430176217E-07
(PID.TID 0000.0001) %MON vort_a_mean                  =  -2.5205768384827E-05
(PID.TID 0000.0001) %MON vort_a_sd                    =   7.3403451907473E-05
(PID.TID 0000.0001) %MON vort_p_mean                  =  -3.1758668286642E-05
(PID.TID 0000.0001) %MON vort_p_sd                    =   1.3126209659805E-04
(PID.TID 0000.0001) %MON surfExpan_theta_mean         =   6.9739154168049E-06
(PID.TID 0000.0001) %MON surfExpan_salt_mean          =  -5.2263607993830E-08
(PID.TID 0000.0001) // =======================================================
(PID.TID 0000.0001) // End MONITOR dynamic field statistics
(PID.TID 0000.0001) // =======================================================
time,SST,SSS,fu,fv,Q,E-P,i0,i1,a,b =   4.2768E+06 -4.7966E-01  3.4445E+01 -1.6349E-02 -1.5077E-02  2.3672E+02  0.0000E+00     2     3  1.5000E-01  8.5000E-01
time,fu0,fu1,fu =   4.2768E+06 -1.4435E-02 -2.7199E-02 -1.6349E-02  1.5000E-01  8.5000E-01
 cg2d: Sum(rhs),rhsMax =   1.35252919974960E-13  6.91710455346105E+00
(PID.TID 0000.0001)                    cg2d_init_res =    3.50442406096098E-01
(PID.TID 0000.0001)                       cg2d_iters =    24
(PID.TID 0000.0001)                         cg2d_res =    6.56674255455777E-14
(PID.TID 0000.0001) // =======================================================
(PID.TID 0000.0001) // Begin MONITOR dynamic field statistics
(PID.TID 0000.0001) // =======================================================
(PID.TID 0000.0001) %MON time_tsnumber                =                   100
(PID.TID 0000.0001) %MON time_secondsf                =   4.3200000000000E+06
(PID.TID 0000.0001) %MON dynstat_eta_max              =   8.2237361855636E-01
(PID.TID 0000.0001) %MON dynstat_eta_min              =  -1.3835476411231E+00
(PID.TID 0000.0001) %MON dynstat_eta_mean             =   7.9902467714889E-17
(PID.TID 0000.0001) %MON dynstat_eta_sd               =   4.6800753455628E-01
(PID.TID 0000.0001) %MON dynstat_eta_del2             =   1.8914423753784E-02
(PID.TID 0000.0001) %MON dynstat_uvel_max             =   1.5040824130417E-01
(PID.TID 0000.0001) %MON dynstat_uvel_min             =  -1.5414371739164E-01
(PID.TID 0000.0001) %MON dynstat_uvel_mean            =   9.2590370225996E-04
(PID.TID 0000.0001) %MON dynstat_uvel_sd              =   1.5311066732987E-02
(PID.TID 0000.0001) %MON dynstat_uvel_del2            =   4.7819416293520E-03
(PID.TID 0000.0001) %MON dynstat_vvel_max             =   1.6669696674564E-01
(PID.TID 0000.0001) %MON dynstat_vvel_min             =  -1.4791578940333E-01
(PID.TID 0000.0001) %MON dynstat_vvel_mean            =   6.7316971027756E-04
(PID.TID 0000.0001) %MON dynstat_vvel_sd              =   1.4649474452942E-02
(PID.TID 0000.0001) %MON dynstat_vvel_del2            =   4.2580559328452E-03
(PID.TID 0000.0001) %MON dynstat_wvel_max             =   3.7677457728506E-04
(PID.TID 0000.0001) %MON dynstat_wvel_min             =  -1.9567832343830E-04
(PID.TID 0000.0001) %MON dynstat_wvel_mean            =   8.5092915187538E-23
(PID.TID 0000.0001) %MON dynstat_wvel_sd              =   2.0809079312445E-05
(PID.TID 0000.0001) %MON dynstat_wvel_del2            =   8.0431037080446E-06
(PID.TID 0000.0001) %MON dynstat_theta_max            =   2.9825894016323E+01
(PID.TID 0000.0001) %MON dynstat_theta_min            =  -1.9298641008569E+00
(PID.TID 0000.0001) %MON dynstat_theta_mean           =   3.5886781998491E+00
(PID.TID 0000.0001) %MON dynstat_theta_sd             =   4.3335019631196E+00
(PID.TID 0000.0001) %MON dynstat_theta_del2           =   1.2880592370283E-01
(PID.TID 0000.0001) %MON dynstat_salt_max             =   3.7388745171571E+01
(PID.TID 0000.0001) %MON dynstat_salt_min             =   2.9722886340483E+01
(PID.TID 0000.0001) %MON dynstat_salt_mean            =   3.4716007026777E+01
(PID.TID 0000.0001) %MON dynstat_salt_sd              =   2.9343801156733E-01
(PID.TID 0000.0001) %MON dynstat_salt_del2            =   2.2919367621722E-02
(PID.TID 0000.0001) %MON advcfl_uvel_max              =   2.9253336493229E-02
(PID.TID 0000.0001) %MON advcfl_vvel_max              =   1.6193273570378E-02
(PID.TID 0000.0001) %MON advcfl_wvel_max              =   7.3317937000995E-02
(PID.TID 0000.0001) %MON advcfl_W_hf_max              =   6.5792491090379E-02
(PID.TID 0000.0001) %MON pe_b_mean                    =   2.8027663198043E-04
(PID.TID 0000.0001) %MON ke_max                       =   1.5468495255124E-02
(PID.TID 0000.0001) %MON ke_mean                      =   2.0344399725407E-04
(PID.TID 0000.0001) %MON ke_vol                       =   1.3226782436723E+18
(PID.TID 0000.0001) %MON vort_r_min                   =  -7.3531717683637E-07
(PID.TID 0000.0001) %MON vort_r_max                   =   6.6054554007673E-07
(PID.TID 0000.0001) %MON vort_a_mean                  =  -2.5205768421057E-05
(PID.TID 0000.0001) %MON vort_a_sd                    =   7.3403446074090E-05
(PID.TID 0000.0001) %MON vort_p_mean                  =  -3.1758668332292E-05
(PID.TID 0000.0001) %MON vort_p_sd                    =   1.3126202297279E-04
(PID.TID 0000.0001) %MON surfExpan_theta_mean         =   6.6066838420749E-06
(PID.TID 0000.0001) %MON surfExpan_salt_mean          =  -3.6092295377760E-08
(PID.TID 0000.0001) // =======================================================
(PID.TID 0000.0001) // End MONITOR dynamic field statistics
(PID.TID 0000.0001) // =======================================================
(PID.TID 0000.0001) // Time-average data written, t-step       100
(PID.TID 0000.0001) 
time,SST,SSS,fu,fv,Q,E-P,i0,i1,a,b =   4.3200E+06 -4.7386E-01  3.4447E+01 -1.6562E-02 -1.4793E-02  2.3630E+02  0.0000E+00     2     3  1.6667E-01  8.3333E-01
time,fu0,fu1,fu =   4.3200E+06 -1.4435E-02 -2.7199E-02 -1.6562E-02  1.6667E-01  8.3333E-01
 cg2d: Sum(rhs),rhsMax =   5.30631094619594E-13  7.04306579128819E+00
(PID.TID 0000.0001)                    cg2d_init_res =    3.32878869927694E-01
(PID.TID 0000.0001)                       cg2d_iters =    24
(PID.TID 0000.0001)                         cg2d_res =    6.40804451917818E-14
(PID.TID 0000.0001) // =======================================================
(PID.TID 0000.0001) // Begin MONITOR dynamic field statistics
(PID.TID 0000.0001) // =======================================================
(PID.TID 0000.0001) %MON time_tsnumber                =                   101
(PID.TID 0000.0001) %MON time_secondsf                =   4.3632000000000E+06
(PID.TID 0000.0001) %MON dynstat_eta_max              =   8.3706705518999E-01
(PID.TID 0000.0001) %MON dynstat_eta_min              =  -1.3784505207155E+00
(PID.TID 0000.0001) %MON dynstat_eta_mean             =   3.7661644804351E-17
(PID.TID 0000.0001) %MON dynstat_eta_sd               =   4.6910689206811E-01
(PID.TID 0000.0001) %MON dynstat_eta_del2             =   1.8980264717134E-02
(PID.TID 0000.0001) %MON dynstat_uvel_max             =   1.4848386104804E-01
(PID.TID 0000.0001) %MON dynstat_uvel_min             =  -1.5334525275438E-01
(PID.TID 0000.0001) %MON dynstat_uvel_mean            =   9.1677423444403E-04
(PID.TID 0000.0001) %MON dynstat_uvel_sd              =   1.5361038731862E-02
(PID.TID 0000.0001) %MON dynstat_uvel_del2            =   4.7645198253723E-03
(PID.TID 0000.0001) %MON dynstat_vvel_max             =   1.6614203030135E-01
(PID.TID 0000.0001) %MON dynstat_vvel_min             =  -1.4701841141302E-01
(PID.TID 0000.0001) %MON dynstat_vvel_mean            =   7.7713333784955E-04
(PID.TID 0000.0001) %MON dynstat_vvel_sd              =   1.4594138935167E-02
(PID.TID 0000.0001) %MON dynstat_vvel_del2            =   4.2409190435011E-03
(PID.TID 0000.0001) %MON dynstat_wvel_max             =   3.7387140862638E-04
(PID.TID 0000.0001) %MON dynstat_wvel_min             =  -1.9485785907015E-04
(PID.TID 0000.0001) %MON dynstat_wvel_mean            =  -8.5587218195309E-23
(PID.TID 0000.0001) %MON dynstat_wvel_sd              =   2.0683495815758E-05
(PID.TID 0000.0001) %MON dynstat_wvel_del2            =   7.9674712581802E-06
(PID.TID 0000.0001) %MON dynstat_theta_max            =   2.9829260960920E+01
(PID.TID 0000.0001) %MON dynstat_theta_min            =  -1.9293508716674E+00
(PID.TID 0000.0001) %MON dynstat_theta_mean           =   3.5886548729573E+00
(PID.TID 0000.0001) %MON dynstat_theta_sd             =   4.3335098506012E+00
(PID.TID 0000.0001) %MON dynstat_theta_del2           =   1.2877166245501E-01
(PID.TID 0000.0001) %MON dynstat_salt_max             =   3.7388324520871E+01
(PID.TID 0000.0001) %MON dynstat_salt_min             =   2.9721156175383E+01
(PID.TID 0000.0001) %MON dynstat_salt_mean            =   3.4716007097766E+01
(PID.TID 0000.0001) %MON dynstat_salt_sd              =   2.9341080224045E-01
(PID.TID 0000.0001) %MON dynstat_salt_del2            =   2.2891626152247E-02
(PID.TID 0000.0001) %MON advcfl_uvel_max              =   2.9131501506814E-02
(PID.TID 0000.0001) %MON advcfl_vvel_max              =   1.6139365944870E-02
(PID.TID 0000.0001) %MON advcfl_wvel_max              =   6.8343291774797E-02
(PID.TID 0000.0001) %MON advcfl_W_hf_max              =   6.3420072012146E-02
(PID.TID 0000.0001) %MON pe_b_mean                    =   2.8159492748830E-04
(PID.TID 0000.0001) %MON ke_max                       =   1.5407198851486E-02
(PID.TID 0000.0001) %MON ke_mean                      =   2.0347390991638E-04
(PID.TID 0000.0001) %MON ke_vol                       =   1.3226782436723E+18
(PID.TID 0000.0001) %MON vort_r_min                   =  -7.4937162228631E-07
(PID.TID 0000.0001) %MON vort_r_max                   =   6.5360144597849E-07
(PID.TID 0000.0001) %MON vort_a_mean                  =  -2.5205768457152E-05
(PID.TID 0000.0001) %MON vort_a_sd                    =   7.3403440626730E-05
(PID.TID 0000.0001) %MON vort_p_mean                  =  -3.1758668377770E-05
(PID.TID 0000.0001) %MON vort_p_sd                    =   1.3126194824921E-04
(PID.TID 0000.0001) %MON surfExpan_theta_mean         =   6.2493573292873E-06
(PID.TID 0000.0001) %MON surfExpan_salt_mean          =  -2.4929070057657E-08
(PID.TID 0000.0001) // =======================================================
(PID.TID 0000.0001) // End MONITOR dynamic field statistics
(PID.TID 0000.0001) // =======================================================
time,SST,SSS,fu,fv,Q,E-P,i0,i1,a,b =   4.3632E+06 -4.6807E-01  3.4450E+01 -1.6775E-02 -1.4508E-02  2.3588E+02  0.0000E+00     2     3  1.8333E-01  8.1667E-01
time,fu0,fu1,fu =   4.3632E+06 -1.4435E-02 -2.7199E-02 -1.6775E-02  1.8333E-01  8.1667E-01
 cg2d: Sum(rhs),rhsMax =   7.10681513638178E-14  7.12733430131964E+00
(PID.TID 0000.0001)                    cg2d_init_res =    3.19783149345170E-01
(PID.TID 0000.0001)                       cg2d_iters =    24
(PID.TID 0000.0001)                         cg2d_res =    6.30925753302066E-14
(PID.TID 0000.0001) // =======================================================
(PID.TID 0000.0001) // Begin MONITOR dynamic field statistics
(PID.TID 0000.0001) // =======================================================
(PID.TID 0000.0001) %MON time_tsnumber                =                   102
(PID.TID 0000.0001) %MON time_secondsf                =   4.4064000000000E+06
(PID.TID 0000.0001) %MON dynstat_eta_max              =   8.4692450505827E-01
(PID.TID 0000.0001) %MON dynstat_eta_min              =  -1.3723287478097E+00
(PID.TID 0000.0001) %MON dynstat_eta_mean             =  -2.5646963363582E-16
(PID.TID 0000.0001) %MON dynstat_eta_sd               =   4.7023056129714E-01
(PID.TID 0000.0001) %MON dynstat_eta_del2             =   1.9038232930755E-02
(PID.TID 0000.0001) %MON dynstat_uvel_max             =   1.5522111365445E-01
(PID.TID 0000.0001) %MON dynstat_uvel_min             =  -1.5250194684709E-01
(PID.TID 0000.0001) %MON dynstat_uvel_mean            =   9.0872539525560E-04
(PID.TID 0000.0001) %MON dynstat_uvel_sd              =   1.5429281333632E-02
(PID.TID 0000.0001) %MON dynstat_uvel_del2            =   4.7467863162673E-03
(PID.TID 0000.0001) %MON dynstat_vvel_max             =   1.6540636302835E-01
(PID.TID 0000.0001) %MON dynstat_vvel_min             =  -1.4602399036278E-01
(PID.TID 0000.0001) %MON dynstat_vvel_mean            =   8.7909906970709E-04
(PID.TID 0000.0001) %MON dynstat_vvel_sd              =   1.4540644831266E-02
(PID.TID 0000.0001) %MON dynstat_vvel_del2            =   4.2262937984278E-03
(PID.TID 0000.0001) %MON dynstat_wvel_max             =   3.7064093187311E-04
(PID.TID 0000.0001) %MON dynstat_wvel_min             =  -1.9390283609878E-04
(PID.TID 0000.0001) %MON dynstat_wvel_mean            =  -9.0417355605702E-23
(PID.TID 0000.0001) %MON dynstat_wvel_sd              =   2.0563291079735E-05
(PID.TID 0000.0001) %MON dynstat_wvel_del2            =   7.8985489661692E-06
(PID.TID 0000.0001) %MON dynstat_theta_max            =   2.9832902995728E+01
(PID.TID 0000.0001) %MON dynstat_theta_min            =  -1.9288068999533E+00
(PID.TID 0000.0001) %MON dynstat_theta_mean           =   3.5886349416764E+00
(PID.TID 0000.0001) %MON dynstat_theta_sd             =   4.3335304762417E+00
(PID.TID 0000.0001) %MON dynstat_theta_del2           =   1.2873199332224E-01
(PID.TID 0000.0001) %MON dynstat_salt_max             =   3.7387902756119E+01
(PID.TID 0000.0001) %MON dynstat_salt_min             =   2.9719453292931E+01
(PID.TID 0000.0001) %MON dynstat_salt_mean            =   3.4716007151651E+01
(PID.TID 0000.0001) %MON dynstat_salt_sd              =   2.9338279020226E-01
(PID.TID 0000.0001) %MON dynstat_salt_del2            =   2.2862797023149E-02
(PID.TID 0000.0001) %MON advcfl_uvel_max              =   2.9000679479345E-02
(PID.TID 0000.0001) %MON advcfl_vvel_max              =   1.6067901768641E-02
(PID.TID 0000.0001) %MON advcfl_wvel_max              =   6.8907848727305E-02
(PID.TID 0000.0001) %MON advcfl_W_hf_max              =   6.5483304899816E-02
(PID.TID 0000.0001) %MON pe_b_mean                    =   2.8294557283675E-04
(PID.TID 0000.0001) %MON ke_max                       =   1.5334532223450E-02
(PID.TID 0000.0001) %MON ke_mean                      =   2.0379796740644E-04
(PID.TID 0000.0001) %MON ke_vol                       =   1.3226782436723E+18
(PID.TID 0000.0001) %MON vort_r_min                   =  -7.6256815702562E-07
(PID.TID 0000.0001) %MON vort_r_max                   =   6.4669321468428E-07
(PID.TID 0000.0001) %MON vort_a_mean                  =  -2.5205768493097E-05
(PID.TID 0000.0001) %MON vort_a_sd                    =   7.3403435636196E-05
(PID.TID 0000.0001) %MON vort_p_mean                  =  -3.1758668423060E-05
(PID.TID 0000.0001) %MON vort_p_sd                    =   1.3126187301496E-04
(PID.TID 0000.0001) %MON surfExpan_theta_mean         =   5.8992495128966E-06
(PID.TID 0000.0001) %MON surfExpan_salt_mean          =  -1.9743687184406E-08
(PID.TID 0000.0001) // =======================================================
(PID.TID 0000.0001) // End MONITOR dynamic field statistics
(PID.TID 0000.0001) // =======================================================
time,SST,SSS,fu,fv,Q,E-P,i0,i1,a,b =   4.4064E+06 -4.6227E-01  3.4453E+01 -1.6988E-02 -1.4224E-02  2.3546E+02  0.0000E+00     2     3  2.0000E-01  8.0000E-01
time,fu0,fu1,fu =   4.4064E+06 -1.4435E-02 -2.7199E-02 -1.6988E-02  2.0000E-01  8.0000E-01
 cg2d: Sum(rhs),rhsMax =  -4.53942439193611E-14  7.17018426194841E+00
(PID.TID 0000.0001)                    cg2d_init_res =    3.11468171013772E-01
(PID.TID 0000.0001)                       cg2d_iters =    24
(PID.TID 0000.0001)                         cg2d_res =    6.21261818206455E-14
(PID.TID 0000.0001) // =======================================================
(PID.TID 0000.0001) // Begin MONITOR dynamic field statistics
(PID.TID 0000.0001) // =======================================================
(PID.TID 0000.0001) %MON time_tsnumber                =                   103
(PID.TID 0000.0001) %MON time_secondsf                =   4.4496000000000E+06
(PID.TID 0000.0001) %MON dynstat_eta_max              =   8.5197889077153E-01
(PID.TID 0000.0001) %MON dynstat_eta_min              =  -1.3654864765889E+00
(PID.TID 0000.0001) %MON dynstat_eta_mean             =  -1.8180842858755E-16
(PID.TID 0000.0001) %MON dynstat_eta_sd               =   4.7137275891745E-01
(PID.TID 0000.0001) %MON dynstat_eta_del2             =   1.9091443524088E-02
(PID.TID 0000.0001) %MON dynstat_uvel_max             =   1.6188541088672E-01
(PID.TID 0000.0001) %MON dynstat_uvel_min             =  -1.5161375286041E-01
(PID.TID 0000.0001) %MON dynstat_uvel_mean            =   9.0197190213168E-04
(PID.TID 0000.0001) %MON dynstat_uvel_sd              =   1.5512639431523E-02
(PID.TID 0000.0001) %MON dynstat_uvel_del2            =   4.7306307882191E-03
(PID.TID 0000.0001) %MON dynstat_vvel_max             =   1.6448780191604E-01
(PID.TID 0000.0001) %MON dynstat_vvel_min             =  -1.4494273507100E-01
(PID.TID 0000.0001) %MON dynstat_vvel_mean            =   9.7810776541175E-04
(PID.TID 0000.0001) %MON dynstat_vvel_sd              =   1.4490367206392E-02
(PID.TID 0000.0001) %MON dynstat_vvel_del2            =   4.2142507959302E-03
(PID.TID 0000.0001) %MON dynstat_wvel_max             =   3.6709501528953E-04
(PID.TID 0000.0001) %MON dynstat_wvel_min             =  -1.9281723694767E-04
(PID.TID 0000.0001) %MON dynstat_wvel_mean            =  -1.7718298061348E-22
(PID.TID 0000.0001) %MON dynstat_wvel_sd              =   2.0449953713751E-05
(PID.TID 0000.0001) %MON dynstat_wvel_del2            =   7.8373828950693E-06
(PID.TID 0000.0001) %MON dynstat_theta_max            =   2.9836902319108E+01
(PID.TID 0000.0001) %MON dynstat_theta_min            =  -1.9282383826357E+00
(PID.TID 0000.0001) %MON dynstat_theta_mean           =   3.5886183546193E+00
(PID.TID 0000.0001) %MON dynstat_theta_sd             =   4.3335639360212E+00
(PID.TID 0000.0001) %MON dynstat_theta_del2           =   1.2867531828686E-01
(PID.TID 0000.0001) %MON dynstat_salt_max             =   3.7387479450086E+01
(PID.TID 0000.0001) %MON dynstat_salt_min             =   2.9717779464645E+01
(PID.TID 0000.0001) %MON dynstat_salt_mean            =   3.4716007267652E+01
(PID.TID 0000.0001) %MON dynstat_salt_sd              =   2.9335407445973E-01
(PID.TID 0000.0001) %MON dynstat_salt_del2            =   2.2832690639161E-02
(PID.TID 0000.0001) %MON advcfl_uvel_max              =   2.8860070350806E-02
(PID.TID 0000.0001) %MON advcfl_vvel_max              =   1.5978670922553E-02
(PID.TID 0000.0001) %MON advcfl_wvel_max              =   6.8820441868540E-02
(PID.TID 0000.0001) %MON advcfl_W_hf_max              =   6.7096139368737E-02
(PID.TID 0000.0001) %MON pe_b_mean                    =   2.8432180097260E-04
(PID.TID 0000.0001) %MON ke_max                       =   1.5249804750505E-02
(PID.TID 0000.0001) %MON ke_mean                      =   2.0439147704547E-04
(PID.TID 0000.0001) %MON ke_vol                       =   1.3226782436723E+18
(PID.TID 0000.0001) %MON vort_r_min                   =  -7.7481089662418E-07
(PID.TID 0000.0001) %MON vort_r_max                   =   6.3984206010497E-07
(PID.TID 0000.0001) %MON vort_a_mean                  =  -2.5205768528889E-05
(PID.TID 0000.0001) %MON vort_a_sd                    =   7.3403431157909E-05
(PID.TID 0000.0001) %MON vort_p_mean                  =  -3.1758668468157E-05
(PID.TID 0000.0001) %MON vort_p_sd                    =   1.3126179786716E-04
(PID.TID 0000.0001) %MON surfExpan_theta_mean         =   5.5552312504554E-06
(PID.TID 0000.0001) %MON surfExpan_salt_mean          =  -2.0839492994954E-08
(PID.TID 0000.0001) // =======================================================
(PID.TID 0000.0001) // End MONITOR dynamic field statistics
(PID.TID 0000.0001) // =======================================================
time,SST,SSS,fu,fv,Q,E-P,i0,i1,a,b =   4.4496E+06 -4.5647E-01  3.4455E+01 -1.7200E-02 -1.3940E-02  2.3505E+02  0.0000E+00     2     3  2.1667E-01  7.8333E-01
time,fu0,fu1,fu =   4.4496E+06 -1.4435E-02 -2.7199E-02 -1.7200E-02  2.1667E-01  7.8333E-01
 cg2d: Sum(rhs),rhsMax =  -1.91513471747840E-14  7.17315886050668E+00
(PID.TID 0000.0001)                    cg2d_init_res =    3.07999266913410E-01
(PID.TID 0000.0001)                       cg2d_iters =    24
(PID.TID 0000.0001)                         cg2d_res =    5.77459637888134E-14
(PID.TID 0000.0001) // =======================================================
(PID.TID 0000.0001) // Begin MONITOR dynamic field statistics
(PID.TID 0000.0001) // =======================================================
(PID.TID 0000.0001) %MON time_tsnumber                =                   104
(PID.TID 0000.0001) %MON time_secondsf                =   4.4928000000000E+06
(PID.TID 0000.0001) %MON dynstat_eta_max              =   8.5241023920232E-01
(PID.TID 0000.0001) %MON dynstat_eta_min              =  -1.3729011820640E+00
(PID.TID 0000.0001) %MON dynstat_eta_mean             =   1.9067767253813E-16
(PID.TID 0000.0001) %MON dynstat_eta_sd               =   4.7252900152239E-01
(PID.TID 0000.0001) %MON dynstat_eta_del2             =   1.9132592450789E-02
(PID.TID 0000.0001) %MON dynstat_uvel_max             =   1.6836053143640E-01
(PID.TID 0000.0001) %MON dynstat_uvel_min             =  -1.5067903515668E-01
(PID.TID 0000.0001) %MON dynstat_uvel_mean            =   8.9667882454318E-04
(PID.TID 0000.0001) %MON dynstat_uvel_sd              =   1.5607608341550E-02
(PID.TID 0000.0001) %MON dynstat_uvel_del2            =   4.7164669250385E-03
(PID.TID 0000.0001) %MON dynstat_vvel_max             =   1.6338465276157E-01
(PID.TID 0000.0001) %MON dynstat_vvel_min             =  -1.4378632912200E-01
(PID.TID 0000.0001) %MON dynstat_vvel_mean            =   1.0732038229756E-03
(PID.TID 0000.0001) %MON dynstat_vvel_sd              =   1.4444587321879E-02
(PID.TID 0000.0001) %MON dynstat_vvel_del2            =   4.2044580787956E-03
(PID.TID 0000.0001) %MON dynstat_wvel_max             =   3.6325011506081E-04
(PID.TID 0000.0001) %MON dynstat_wvel_min             =  -1.9160678797179E-04
(PID.TID 0000.0001) %MON dynstat_wvel_mean            =  -2.8077274335895E-23
(PID.TID 0000.0001) %MON dynstat_wvel_sd              =   2.0344215611060E-05
(PID.TID 0000.0001) %MON dynstat_wvel_del2            =   7.7820022213174E-06
(PID.TID 0000.0001) %MON dynstat_theta_max            =   2.9841194093419E+01
(PID.TID 0000.0001) %MON dynstat_theta_min            =  -1.9276514962727E+00
(PID.TID 0000.0001) %MON dynstat_theta_mean           =   3.5886050969250E+00
(PID.TID 0000.0001) %MON dynstat_theta_sd             =   4.3336100680458E+00
(PID.TID 0000.0001) %MON dynstat_theta_del2           =   1.2861027296821E-01
(PID.TID 0000.0001) %MON dynstat_salt_max             =   3.7387053969569E+01
(PID.TID 0000.0001) %MON dynstat_salt_min             =   2.9716136313584E+01
(PID.TID 0000.0001) %MON dynstat_salt_mean            =   3.4716007520237E+01
(PID.TID 0000.0001) %MON dynstat_salt_sd              =   2.9332475712118E-01
(PID.TID 0000.0001) %MON dynstat_salt_del2            =   2.2802807524786E-02
(PID.TID 0000.0001) %MON advcfl_uvel_max              =   2.8708963913545E-02
(PID.TID 0000.0001) %MON advcfl_vvel_max              =   1.5871508828390E-02
(PID.TID 0000.0001) %MON advcfl_wvel_max              =   6.8123349726094E-02
(PID.TID 0000.0001) %MON advcfl_W_hf_max              =   6.8232886073620E-02
(PID.TID 0000.0001) %MON pe_b_mean                    =   2.8571835250072E-04
(PID.TID 0000.0001) %MON ke_max                       =   1.5152392538350E-02
(PID.TID 0000.0001) %MON ke_mean                      =   2.0522274791707E-04
(PID.TID 0000.0001) %MON ke_vol                       =   1.3226782436723E+18
(PID.TID 0000.0001) %MON vort_r_min                   =  -7.8602224784986E-07
(PID.TID 0000.0001) %MON vort_r_max                   =   6.3306044768805E-07
(PID.TID 0000.0001) %MON vort_a_mean                  =  -2.5205768564534E-05
(PID.TID 0000.0001) %MON vort_a_sd                    =   7.3403427230461E-05
(PID.TID 0000.0001) %MON vort_p_mean                  =  -3.1758668513069E-05
(PID.TID 0000.0001) %MON vort_p_sd                    =   1.3126172336390E-04
(PID.TID 0000.0001) %MON surfExpan_theta_mean         =   5.2146803209440E-06
(PID.TID 0000.0001) %MON surfExpan_salt_mean          =  -2.8644314172200E-08
(PID.TID 0000.0001) // =======================================================
(PID.TID 0000.0001) // End MONITOR dynamic field statistics
(PID.TID 0000.0001) // =======================================================
time,SST,SSS,fu,fv,Q,E-P,i0,i1,a,b =   4.4928E+06 -4.5067E-01  3.4458E+01 -1.7413E-02 -1.3655E-02  2.3463E+02  0.0000E+00     2     3  2.3333E-01  7.6667E-01
time,fu0,fu1,fu =   4.4928E+06 -1.4435E-02 -2.7199E-02 -1.7413E-02  2.3333E-01  7.6667E-01
 cg2d: Sum(rhs),rhsMax =   1.01557651177586E-13  7.13896046358100E+00
(PID.TID 0000.0001)                    cg2d_init_res =    3.09116097953190E-01
(PID.TID 0000.0001)                       cg2d_iters =    24
(PID.TID 0000.0001)                         cg2d_res =    5.33335269944084E-14
(PID.TID 0000.0001) // =======================================================
(PID.TID 0000.0001) // Begin MONITOR dynamic field statistics
(PID.TID 0000.0001) // =======================================================
(PID.TID 0000.0001) %MON time_tsnumber                =                   105
(PID.TID 0000.0001) %MON time_secondsf                =   4.5360000000000E+06
(PID.TID 0000.0001) %MON dynstat_eta_max              =   8.4853276047010E-01
(PID.TID 0000.0001) %MON dynstat_eta_min              =  -1.3876067731383E+00
(PID.TID 0000.0001) %MON dynstat_eta_mean             =  -9.4047787613425E-17
(PID.TID 0000.0001) %MON dynstat_eta_sd               =   4.7369631679199E-01
(PID.TID 0000.0001) %MON dynstat_eta_del2             =   1.9132217392263E-02
(PID.TID 0000.0001) %MON dynstat_uvel_max             =   1.7453506289688E-01
(PID.TID 0000.0001) %MON dynstat_uvel_min             =  -1.4969497649237E-01
(PID.TID 0000.0001) %MON dynstat_uvel_mean            =   8.9296057001979E-04
(PID.TID 0000.0001) %MON dynstat_uvel_sd              =   1.5710509868519E-02
(PID.TID 0000.0001) %MON dynstat_uvel_del2            =   4.7030447606277E-03
(PID.TID 0000.0001) %MON dynstat_vvel_max             =   1.6209584301535E-01
(PID.TID 0000.0001) %MON dynstat_vvel_min             =  -1.4256749503083E-01
(PID.TID 0000.0001) %MON dynstat_vvel_mean            =   1.1634684499593E-03
(PID.TID 0000.0001) %MON dynstat_vvel_sd              =   1.4404385580984E-02
(PID.TID 0000.0001) %MON dynstat_vvel_del2            =   4.1968172550961E-03
(PID.TID 0000.0001) %MON dynstat_wvel_max             =   3.5912684767463E-04
(PID.TID 0000.0001) %MON dynstat_wvel_min             =  -1.9027851600893E-04
(PID.TID 0000.0001) %MON dynstat_wvel_mean            =   5.1801680692012E-22
(PID.TID 0000.0001) %MON dynstat_wvel_sd              =   2.0246079133816E-05
(PID.TID 0000.0001) %MON dynstat_wvel_del2            =   7.7292730289229E-06
(PID.TID 0000.0001) %MON dynstat_theta_max            =   2.9845722872273E+01
(PID.TID 0000.0001) %MON dynstat_theta_min            =  -1.9270545397289E+00
(PID.TID 0000.0001) %MON dynstat_theta_mean           =   3.5885951194348E+00
(PID.TID 0000.0001) %MON dynstat_theta_sd             =   4.3336687997327E+00
(PID.TID 0000.0001) %MON dynstat_theta_del2           =   1.2853766625119E-01
(PID.TID 0000.0001) %MON dynstat_salt_max             =   3.7386625574217E+01
(PID.TID 0000.0001) %MON dynstat_salt_min             =   2.9714525300183E+01
(PID.TID 0000.0001) %MON dynstat_salt_mean            =   3.4716007986684E+01
(PID.TID 0000.0001) %MON dynstat_salt_sd              =   2.9329485654865E-01
(PID.TID 0000.0001) %MON dynstat_salt_del2            =   2.2771992535697E-02
(PID.TID 0000.0001) %MON advcfl_uvel_max              =   2.8845027484730E-02
(PID.TID 0000.0001) %MON advcfl_vvel_max              =   1.5746311296556E-02
(PID.TID 0000.0001) %MON advcfl_wvel_max              =   6.6865259813675E-02
(PID.TID 0000.0001) %MON advcfl_W_hf_max              =   6.8865995735653E-02
(PID.TID 0000.0001) %MON pe_b_mean                    =   2.8713174873888E-04
(PID.TID 0000.0001) %MON ke_max                       =   1.5041760859648E-02
(PID.TID 0000.0001) %MON ke_mean                      =   2.0625380076618E-04
(PID.TID 0000.0001) %MON ke_vol                       =   1.3226782436723E+18
(PID.TID 0000.0001) %MON vort_r_min                   =  -7.9614296844858E-07
(PID.TID 0000.0001) %MON vort_r_max                   =   6.2635353062916E-07
(PID.TID 0000.0001) %MON vort_a_mean                  =  -2.5205768600035E-05
(PID.TID 0000.0001) %MON vort_a_sd                    =   7.3403423875364E-05
(PID.TID 0000.0001) %MON vort_p_mean                  =  -3.1758668557799E-05
(PID.TID 0000.0001) %MON vort_p_sd                    =   1.3126165004206E-04
(PID.TID 0000.0001) %MON surfExpan_theta_mean         =   4.8759414753819E-06
(PID.TID 0000.0001) %MON surfExpan_salt_mean          =  -4.3228971070659E-08
(PID.TID 0000.0001) // =======================================================
(PID.TID 0000.0001) // End MONITOR dynamic field statistics
(PID.TID 0000.0001) // =======================================================
time,SST,SSS,fu,fv,Q,E-P,i0,i1,a,b =   4.5360E+06 -4.4487E-01  3.4461E+01 -1.7626E-02 -1.3371E-02  2.3421E+02  0.0000E+00     2     3  2.5000E-01  7.5000E-01
time,fu0,fu1,fu =   4.5360E+06 -1.4435E-02 -2.7199E-02 -1.7626E-02  2.5000E-01  7.5000E-01
 cg2d: Sum(rhs),rhsMax =   2.04447569984723E-13  7.07130417052424E+00
(PID.TID 0000.0001)                    cg2d_init_res =    3.14225874083156E-01
(PID.TID 0000.0001)                       cg2d_iters =    24
(PID.TID 0000.0001)                         cg2d_res =    6.29456953335054E-14
(PID.TID 0000.0001) // =======================================================
(PID.TID 0000.0001) // Begin MONITOR dynamic field statistics
(PID.TID 0000.0001) // =======================================================
(PID.TID 0000.0001) %MON time_tsnumber                =                   106
(PID.TID 0000.0001) %MON time_secondsf                =   4.5792000000000E+06
(PID.TID 0000.0001) %MON dynstat_eta_max              =   8.4077771312607E-01
(PID.TID 0000.0001) %MON dynstat_eta_min              =  -1.4012121809223E+00
(PID.TID 0000.0001) %MON dynstat_eta_mean             =   3.0654432925772E-16
(PID.TID 0000.0001) %MON dynstat_eta_sd               =   4.7487314637262E-01
(PID.TID 0000.0001) %MON dynstat_eta_del2             =   1.9114299814691E-02
(PID.TID 0000.0001) %MON dynstat_uvel_max             =   1.8030450593665E-01
(PID.TID 0000.0001) %MON dynstat_uvel_min             =  -1.4865812153564E-01
(PID.TID 0000.0001) %MON dynstat_uvel_mean            =   8.9088018560347E-04
(PID.TID 0000.0001) %MON dynstat_uvel_sd              =   1.5817680885332E-02
(PID.TID 0000.0001) %MON dynstat_uvel_del2            =   4.6914394706060E-03
(PID.TID 0000.0001) %MON dynstat_vvel_max             =   1.6062100371344E-01
(PID.TID 0000.0001) %MON dynstat_vvel_min             =  -1.4129952930700E-01
(PID.TID 0000.0001) %MON dynstat_vvel_mean            =   1.2480503888409E-03
(PID.TID 0000.0001) %MON dynstat_vvel_sd              =   1.4370545662837E-02
(PID.TID 0000.0001) %MON dynstat_vvel_del2            =   4.1894274532697E-03
(PID.TID 0000.0001) %MON dynstat_wvel_max             =   3.5474953798867E-04
(PID.TID 0000.0001) %MON dynstat_wvel_min             =  -1.8884079215950E-04
(PID.TID 0000.0001) %MON dynstat_wvel_mean            =   1.8001629537171E-22
(PID.TID 0000.0001) %MON dynstat_wvel_sd              =   2.0154842510977E-05
(PID.TID 0000.0001) %MON dynstat_wvel_del2            =   7.6816216649637E-06
(PID.TID 0000.0001) %MON dynstat_theta_max            =   2.9850424702669E+01
(PID.TID 0000.0001) %MON dynstat_theta_min            =  -1.9264550122612E+00
(PID.TID 0000.0001) %MON dynstat_theta_mean           =   3.5885884099380E+00
(PID.TID 0000.0001) %MON dynstat_theta_sd             =   4.3337398869592E+00
(PID.TID 0000.0001) %MON dynstat_theta_del2           =   1.2845443457694E-01
(PID.TID 0000.0001) %MON dynstat_salt_max             =   3.7386193537834E+01
(PID.TID 0000.0001) %MON dynstat_salt_min             =   2.9712947764895E+01
(PID.TID 0000.0001) %MON dynstat_salt_mean            =   3.4716008740015E+01
(PID.TID 0000.0001) %MON dynstat_salt_sd              =   2.9326432927330E-01
(PID.TID 0000.0001) %MON dynstat_salt_del2            =   2.2741767278553E-02
(PID.TID 0000.0001) %MON advcfl_uvel_max              =   2.9798530696587E-02
(PID.TID 0000.0001) %MON advcfl_vvel_max              =   1.5603042485165E-02
(PID.TID 0000.0001) %MON advcfl_wvel_max              =   6.5100456663879E-02
(PID.TID 0000.0001) %MON advcfl_W_hf_max              =   6.8975733457912E-02
(PID.TID 0000.0001) %MON pe_b_mean                    =   2.8856019503046E-04
(PID.TID 0000.0001) %MON ke_max                       =   1.5360201557549E-02
(PID.TID 0000.0001) %MON ke_mean                      =   2.0744162024754E-04
(PID.TID 0000.0001) %MON ke_vol                       =   1.3226782436723E+18
(PID.TID 0000.0001) %MON vort_r_min                   =  -8.0513187438573E-07
(PID.TID 0000.0001) %MON vort_r_max                   =   6.1972092091596E-07
(PID.TID 0000.0001) %MON vort_a_mean                  =  -2.5205768635391E-05
(PID.TID 0000.0001) %MON vort_a_sd                    =   7.3403421097004E-05
(PID.TID 0000.0001) %MON vort_p_mean                  =  -3.1758668602347E-05
(PID.TID 0000.0001) %MON vort_p_sd                    =   1.3126157839659E-04
(PID.TID 0000.0001) %MON surfExpan_theta_mean         =   4.5384466040773E-06
(PID.TID 0000.0001) %MON surfExpan_salt_mean          =  -6.4353662316386E-08
(PID.TID 0000.0001) // =======================================================
(PID.TID 0000.0001) // End MONITOR dynamic field statistics
(PID.TID 0000.0001) // =======================================================
time,SST,SSS,fu,fv,Q,E-P,i0,i1,a,b =   4.5792E+06 -4.3907E-01  3.4463E+01 -1.7838E-02 -1.3087E-02  2.3379E+02  0.0000E+00     2     3  2.6667E-01  7.3333E-01
time,fu0,fu1,fu =   4.5792E+06 -1.4435E-02 -2.7199E-02 -1.7838E-02  2.6667E-01  7.3333E-01
 cg2d: Sum(rhs),rhsMax =   1.47271084216527E-13  6.97474689469139E+00
(PID.TID 0000.0001)                    cg2d_init_res =    3.22463574105968E-01
(PID.TID 0000.0001)                       cg2d_iters =    24
(PID.TID 0000.0001)                         cg2d_res =    6.48014057005891E-14
(PID.TID 0000.0001) // =======================================================
(PID.TID 0000.0001) // Begin MONITOR dynamic field statistics
(PID.TID 0000.0001) // =======================================================
(PID.TID 0000.0001) %MON time_tsnumber                =                   107
(PID.TID 0000.0001) %MON time_secondsf                =   4.6224000000000E+06
(PID.TID 0000.0001) %MON dynstat_eta_max              =   8.2967349201309E-01
(PID.TID 0000.0001) %MON dynstat_eta_min              =  -1.4133364378797E+00
(PID.TID 0000.0001) %MON dynstat_eta_mean             =   2.1230160868810E-16
(PID.TID 0000.0001) %MON dynstat_eta_sd               =   4.7605897919283E-01
(PID.TID 0000.0001) %MON dynstat_eta_del2             =   1.9084195979312E-02
(PID.TID 0000.0001) %MON dynstat_uvel_max             =   1.8557320342950E-01
(PID.TID 0000.0001) %MON dynstat_uvel_min             =  -1.4756498903232E-01
(PID.TID 0000.0001) %MON dynstat_uvel_mean            =   8.9044838211699E-04
(PID.TID 0000.0001) %MON dynstat_uvel_sd              =   1.5925654356788E-02
(PID.TID 0000.0001) %MON dynstat_uvel_del2            =   4.6814548313724E-03
(PID.TID 0000.0001) %MON dynstat_vvel_max             =   1.6070231157419E-01
(PID.TID 0000.0001) %MON dynstat_vvel_min             =  -1.3999584655098E-01
(PID.TID 0000.0001) %MON dynstat_vvel_mean            =   1.3261926538734E-03
(PID.TID 0000.0001) %MON dynstat_vvel_sd              =   1.4343480296162E-02
(PID.TID 0000.0001) %MON dynstat_vvel_del2            =   4.1818916837011E-03
(PID.TID 0000.0001) %MON dynstat_wvel_max             =   3.5014561209124E-04
(PID.TID 0000.0001) %MON dynstat_wvel_min             =  -1.8730268962656E-04
(PID.TID 0000.0001) %MON dynstat_wvel_mean            =  -6.6314759934042E-22
(PID.TID 0000.0001) %MON dynstat_wvel_sd              =   2.0069207429557E-05
(PID.TID 0000.0001) %MON dynstat_wvel_del2            =   7.6420309619288E-06
(PID.TID 0000.0001) %MON dynstat_theta_max            =   2.9855224617422E+01
(PID.TID 0000.0001) %MON dynstat_theta_min            =  -1.9260216271406E+00
(PID.TID 0000.0001) %MON dynstat_theta_mean           =   3.5885849510430E+00
(PID.TID 0000.0001) %MON dynstat_theta_sd             =   4.3338228039176E+00
(PID.TID 0000.0001) %MON dynstat_theta_del2           =   1.2834988896183E-01
(PID.TID 0000.0001) %MON dynstat_salt_max             =   3.7385757247871E+01
(PID.TID 0000.0001) %MON dynstat_salt_min             =   2.9711404917088E+01
(PID.TID 0000.0001) %MON dynstat_salt_mean            =   3.4716009846016E+01
(PID.TID 0000.0001) %MON dynstat_salt_sd              =   2.9323324538150E-01
(PID.TID 0000.0001) %MON dynstat_salt_del2            =   2.2709531455594E-02
(PID.TID 0000.0001) %MON advcfl_uvel_max              =   3.0669276788906E-02
(PID.TID 0000.0001) %MON advcfl_vvel_max              =   1.5610940891826E-02
(PID.TID 0000.0001) %MON advcfl_wvel_max              =   6.2887170923808E-02
(PID.TID 0000.0001) %MON advcfl_W_hf_max              =   6.8551447948240E-02
(PID.TID 0000.0001) %MON pe_b_mean                    =   2.9000315467671E-04
(PID.TID 0000.0001) %MON ke_max                       =   1.6394425244448E-02
(PID.TID 0000.0001) %MON ke_mean                      =   2.0873981682525E-04
(PID.TID 0000.0001) %MON ke_vol                       =   1.3226782436723E+18
(PID.TID 0000.0001) %MON vort_r_min                   =  -8.1296523307875E-07
(PID.TID 0000.0001) %MON vort_r_max                   =   6.1315865636232E-07
(PID.TID 0000.0001) %MON vort_a_mean                  =  -2.5205768670598E-05
(PID.TID 0000.0001) %MON vort_a_sd                    =   7.3403418882956E-05
(PID.TID 0000.0001) %MON vort_p_mean                  =  -3.1758668646706E-05
(PID.TID 0000.0001) %MON vort_p_sd                    =   1.3126150888424E-04
(PID.TID 0000.0001) %MON surfExpan_theta_mean         =   4.2024572961923E-06
(PID.TID 0000.0001) %MON surfExpan_salt_mean          =  -9.1614365773781E-08
(PID.TID 0000.0001) // =======================================================
(PID.TID 0000.0001) // End MONITOR dynamic field statistics
(PID.TID 0000.0001) // =======================================================
time,SST,SSS,fu,fv,Q,E-P,i0,i1,a,b =   4.6224E+06 -4.3327E-01  3.4466E+01 -1.8051E-02 -1.2803E-02  2.3337E+02  0.0000E+00     2     3  2.8333E-01  7.1667E-01
time,fu0,fu1,fu =   4.6224E+06 -1.4435E-02 -2.7199E-02 -1.8051E-02  2.8333E-01  7.1667E-01
 cg2d: Sum(rhs),rhsMax =  -4.31293889491258E-13  6.85449550980012E+00
(PID.TID 0000.0001)                    cg2d_init_res =    3.32796292163880E-01
(PID.TID 0000.0001)                       cg2d_iters =    24
(PID.TID 0000.0001)                         cg2d_res =    6.62202451226829E-14
(PID.TID 0000.0001) // =======================================================
(PID.TID 0000.0001) // Begin MONITOR dynamic field statistics
(PID.TID 0000.0001) // =======================================================
(PID.TID 0000.0001) %MON time_tsnumber                =                   108
(PID.TID 0000.0001) %MON time_secondsf                =   4.6656000000000E+06
(PID.TID 0000.0001) %MON dynstat_eta_max              =   8.1582328991102E-01
(PID.TID 0000.0001) %MON dynstat_eta_min              =  -1.4239999876484E+00
(PID.TID 0000.0001) %MON dynstat_eta_mean             =  -1.2118984477608E-17
(PID.TID 0000.0001) %MON dynstat_eta_sd               =   4.7725380113977E-01
(PID.TID 0000.0001) %MON dynstat_eta_del2             =   1.9039875631094E-02
(PID.TID 0000.0001) %MON dynstat_uvel_max             =   1.9025604017200E-01
(PID.TID 0000.0001) %MON dynstat_uvel_min             =  -1.4641252145292E-01
(PID.TID 0000.0001) %MON dynstat_uvel_mean            =   8.9162421898792E-04
(PID.TID 0000.0001) %MON dynstat_uvel_sd              =   1.6031319657810E-02
(PID.TID 0000.0001) %MON dynstat_uvel_del2            =   4.6725548805001E-03
(PID.TID 0000.0001) %MON dynstat_vvel_max             =   1.6242039013849E-01
(PID.TID 0000.0001) %MON dynstat_vvel_min             =  -1.3866951923037E-01
(PID.TID 0000.0001) %MON dynstat_vvel_mean            =   1.3972569553951E-03
(PID.TID 0000.0001) %MON dynstat_vvel_sd              =   1.4323187005925E-02
(PID.TID 0000.0001) %MON dynstat_vvel_del2            =   4.1758390714337E-03
(PID.TID 0000.0001) %MON dynstat_wvel_max             =   3.4534486418031E-04
(PID.TID 0000.0001) %MON dynstat_wvel_min             =  -1.8567355903927E-04
(PID.TID 0000.0001) %MON dynstat_wvel_mean            =  -2.8679337202506E-22
(PID.TID 0000.0001) %MON dynstat_wvel_sd              =   1.9987437563081E-05
(PID.TID 0000.0001) %MON dynstat_wvel_del2            =   7.6071649649570E-06
(PID.TID 0000.0001) %MON dynstat_theta_max            =   2.9860039234564E+01
(PID.TID 0000.0001) %MON dynstat_theta_min            =  -1.9265663532967E+00
(PID.TID 0000.0001) %MON dynstat_theta_mean           =   3.5885847015380E+00
(PID.TID 0000.0001) %MON dynstat_theta_sd             =   4.3339169503685E+00
(PID.TID 0000.0001) %MON dynstat_theta_del2           =   1.2822639837346E-01
(PID.TID 0000.0001) %MON dynstat_salt_max             =   3.7385316103845E+01
(PID.TID 0000.0001) %MON dynstat_salt_min             =   2.9709897843728E+01
(PID.TID 0000.0001) %MON dynstat_salt_mean            =   3.4716011361650E+01
(PID.TID 0000.0001) %MON dynstat_salt_sd              =   2.9320167368920E-01
(PID.TID 0000.0001) %MON dynstat_salt_del2            =   2.2680085810685E-02
(PID.TID 0000.0001) %MON advcfl_uvel_max              =   3.1443198958480E-02
(PID.TID 0000.0001) %MON advcfl_vvel_max              =   1.5777838447015E-02
(PID.TID 0000.0001) %MON advcfl_wvel_max              =   6.0285963435396E-02
(PID.TID 0000.0001) %MON advcfl_W_hf_max              =   6.8515953794747E-02
(PID.TID 0000.0001) %MON pe_b_mean                    =   2.9146069241005E-04
(PID.TID 0000.0001) %MON ke_max                       =   1.7368062368921E-02
(PID.TID 0000.0001) %MON ke_mean                      =   2.1010059394672E-04
(PID.TID 0000.0001) %MON ke_vol                       =   1.3226782436723E+18
(PID.TID 0000.0001) %MON vort_r_min                   =  -8.1963587340921E-07
(PID.TID 0000.0001) %MON vort_r_max                   =   6.1076345046529E-07
(PID.TID 0000.0001) %MON vort_a_mean                  =  -2.5205768705527E-05
(PID.TID 0000.0001) %MON vort_a_sd                    =   7.3403417205951E-05
(PID.TID 0000.0001) %MON vort_p_mean                  =  -3.1758668690716E-05
(PID.TID 0000.0001) %MON vort_p_sd                    =   1.3126144191561E-04
(PID.TID 0000.0001) %MON surfExpan_theta_mean         =   3.8689934279525E-06
(PID.TID 0000.0001) %MON surfExpan_salt_mean          =  -1.2439904736154E-07
(PID.TID 0000.0001) // =======================================================
(PID.TID 0000.0001) // End MONITOR dynamic field statistics
(PID.TID 0000.0001) // =======================================================
time,SST,SSS,fu,fv,Q,E-P,i0,i1,a,b =   4.6656E+06 -4.2747E-01  3.4469E+01 -1.8264E-02 -1.2518E-02  2.3296E+02  0.0000E+00     2     3  3.0000E-01  7.0000E-01
time,fu0,fu1,fu =   4.6656E+06 -1.4435E-02 -2.7199E-02 -1.8264E-02  3.0000E-01  7.0000E-01
 cg2d: Sum(rhs),rhsMax =  -4.41036096532343E-13  6.77682342917120E+00
(PID.TID 0000.0001)                    cg2d_init_res =    3.41050355489721E-01
(PID.TID 0000.0001)                       cg2d_iters =    24
(PID.TID 0000.0001)                         cg2d_res =    6.64894634778392E-14
(PID.TID 0000.0001) // =======================================================
(PID.TID 0000.0001) // Begin MONITOR dynamic field statistics
(PID.TID 0000.0001) // =======================================================
(PID.TID 0000.0001) %MON time_tsnumber                =                   109
(PID.TID 0000.0001) %MON time_secondsf                =   4.7088000000000E+06
(PID.TID 0000.0001) %MON dynstat_eta_max              =   7.9988096634390E-01
(PID.TID 0000.0001) %MON dynstat_eta_min              =  -1.4332706727895E+00
(PID.TID 0000.0001) %MON dynstat_eta_mean             =   5.0421743651097E-17
(PID.TID 0000.0001) %MON dynstat_eta_sd               =   4.7845748615682E-01
(PID.TID 0000.0001) %MON dynstat_eta_del2             =   1.8987208171474E-02
(PID.TID 0000.0001) %MON dynstat_uvel_max             =   1.9427993043101E-01
(PID.TID 0000.0001) %MON dynstat_uvel_min             =  -1.4519852860501E-01
(PID.TID 0000.0001) %MON dynstat_uvel_mean            =   8.9431657947553E-04
(PID.TID 0000.0001) %MON dynstat_uvel_sd              =   1.6132054093517E-02
(PID.TID 0000.0001) %MON dynstat_uvel_del2            =   4.6640659957937E-03
(PID.TID 0000.0001) %MON dynstat_vvel_max             =   1.6400259625006E-01
(PID.TID 0000.0001) %MON dynstat_vvel_min             =  -1.3733286958743E-01
(PID.TID 0000.0001) %MON dynstat_vvel_mean            =   1.4607411861408E-03
(PID.TID 0000.0001) %MON dynstat_vvel_sd              =   1.4309231655668E-02
(PID.TID 0000.0001) %MON dynstat_vvel_del2            =   4.1711656254801E-03
(PID.TID 0000.0001) %MON dynstat_wvel_max             =   3.4037876512529E-04
(PID.TID 0000.0001) %MON dynstat_wvel_min             =  -1.8396297138046E-04
(PID.TID 0000.0001) %MON dynstat_wvel_mean            =  -7.3322499459838E-23
(PID.TID 0000.0001) %MON dynstat_wvel_sd              =   1.9907558635596E-05
(PID.TID 0000.0001) %MON dynstat_wvel_del2            =   7.5712305307868E-06
(PID.TID 0000.0001) %MON dynstat_theta_max            =   2.9864780179296E+01
(PID.TID 0000.0001) %MON dynstat_theta_min            =  -1.9266570868413E+00
(PID.TID 0000.0001) %MON dynstat_theta_mean           =   3.5885875863372E+00
(PID.TID 0000.0001) %MON dynstat_theta_sd             =   4.3340219722669E+00
(PID.TID 0000.0001) %MON dynstat_theta_del2           =   1.2812243660737E-01
(PID.TID 0000.0001) %MON dynstat_salt_max             =   3.7384869689104E+01
(PID.TID 0000.0001) %MON dynstat_salt_min             =   2.9708427512986E+01
(PID.TID 0000.0001) %MON dynstat_salt_mean            =   3.4716013333586E+01
(PID.TID 0000.0001) %MON dynstat_salt_sd              =   2.9316971103133E-01
(PID.TID 0000.0001) %MON dynstat_salt_del2            =   2.2647456033064E-02
(PID.TID 0000.0001) %MON advcfl_uvel_max              =   3.2108218486305E-02
(PID.TID 0000.0001) %MON advcfl_vvel_max              =   1.5931537082986E-02
(PID.TID 0000.0001) %MON advcfl_wvel_max              =   5.7358129492117E-02
(PID.TID 0000.0001) %MON advcfl_W_hf_max              =   6.8899385144863E-02
(PID.TID 0000.0001) %MON pe_b_mean                    =   2.9293273633752E-04
(PID.TID 0000.0001) %MON ke_max                       =   1.8264078364353E-02
(PID.TID 0000.0001) %MON ke_mean                      =   2.1147680947073E-04
(PID.TID 0000.0001) %MON ke_vol                       =   1.3226782436723E+18
(PID.TID 0000.0001) %MON vort_r_min                   =  -8.2515204985263E-07
(PID.TID 0000.0001) %MON vort_r_max                   =   6.1861980150192E-07
(PID.TID 0000.0001) %MON vort_a_mean                  =  -2.5205768740321E-05
(PID.TID 0000.0001) %MON vort_a_sd                    =   7.3403416020990E-05
(PID.TID 0000.0001) %MON vort_p_mean                  =  -3.1758668734557E-05
(PID.TID 0000.0001) %MON vort_p_sd                    =   1.3126137783604E-04
(PID.TID 0000.0001) %MON surfExpan_theta_mean         =   3.5409041463830E-06
(PID.TID 0000.0001) %MON surfExpan_salt_mean          =  -1.6185683305533E-07
(PID.TID 0000.0001) // =======================================================
(PID.TID 0000.0001) // End MONITOR dynamic field statistics
(PID.TID 0000.0001) // =======================================================
time,SST,SSS,fu,fv,Q,E-P,i0,i1,a,b =   4.7088E+06 -4.2167E-01  3.4471E+01 -1.8477E-02 -1.2234E-02  2.3254E+02  0.0000E+00     2     3  3.1667E-01  6.8333E-01
time,fu0,fu1,fu =   4.7088E+06 -1.4435E-02 -2.7199E-02 -1.8477E-02  3.1667E-01  6.8333E-01
 cg2d: Sum(rhs),rhsMax =  -2.47926679186605E-13  6.84684496369599E+00
(PID.TID 0000.0001)                    cg2d_init_res =    3.40802699455436E-01
(PID.TID 0000.0001)                       cg2d_iters =    24
(PID.TID 0000.0001)                         cg2d_res =    6.42778876482675E-14
(PID.TID 0000.0001) // =======================================================
(PID.TID 0000.0001) // Begin MONITOR dynamic field statistics
(PID.TID 0000.0001) // =======================================================
(PID.TID 0000.0001) %MON time_tsnumber                =                   110
(PID.TID 0000.0001) %MON time_secondsf                =   4.7520000000000E+06
(PID.TID 0000.0001) %MON dynstat_eta_max              =   7.8252616508684E-01
(PID.TID 0000.0001) %MON dynstat_eta_min              =  -1.4412549412696E+00
(PID.TID 0000.0001) %MON dynstat_eta_mean             =   2.5517335452390E-16
(PID.TID 0000.0001) %MON dynstat_eta_sd               =   4.7966918460859E-01
(PID.TID 0000.0001) %MON dynstat_eta_del2             =   1.8946828026560E-02
(PID.TID 0000.0001) %MON dynstat_uvel_max             =   1.9758504195630E-01
(PID.TID 0000.0001) %MON dynstat_uvel_min             =  -1.4392204458432E-01
(PID.TID 0000.0001) %MON dynstat_uvel_mean            =   8.9838591251541E-04
(PID.TID 0000.0001) %MON dynstat_uvel_sd              =   1.6225802587245E-02
(PID.TID 0000.0001) %MON dynstat_uvel_del2            =   4.6554658935377E-03
(PID.TID 0000.0001) %MON dynstat_vvel_max             =   1.6544439782621E-01
(PID.TID 0000.0001) %MON dynstat_vvel_min             =  -1.3847259144801E-01
(PID.TID 0000.0001) %MON dynstat_vvel_mean            =   1.5162936709230E-03
(PID.TID 0000.0001) %MON dynstat_vvel_sd              =   1.4300775527519E-02
(PID.TID 0000.0001) %MON dynstat_vvel_del2            =   4.1657969389734E-03
(PID.TID 0000.0001) %MON dynstat_wvel_max             =   3.3527968697488E-04
(PID.TID 0000.0001) %MON dynstat_wvel_min             =  -1.8218024224410E-04
(PID.TID 0000.0001) %MON dynstat_wvel_mean            =   4.9994268528298E-22
(PID.TID 0000.0001) %MON dynstat_wvel_sd              =   1.9827603697759E-05
(PID.TID 0000.0001) %MON dynstat_wvel_del2            =   7.5351417252784E-06
(PID.TID 0000.0001) %MON dynstat_theta_max            =   2.9869356256489E+01
(PID.TID 0000.0001) %MON dynstat_theta_min            =  -1.9268479923680E+00
(PID.TID 0000.0001) %MON dynstat_theta_mean           =   3.5885935125801E+00
(PID.TID 0000.0001) %MON dynstat_theta_sd             =   4.3341369144434E+00
(PID.TID 0000.0001) %MON dynstat_theta_del2           =   1.2801032016528E-01
(PID.TID 0000.0001) %MON dynstat_salt_max             =   3.7384418234126E+01
(PID.TID 0000.0001) %MON dynstat_salt_min             =   2.9706994768172E+01
(PID.TID 0000.0001) %MON dynstat_salt_mean            =   3.4716015798393E+01
(PID.TID 0000.0001) %MON dynstat_salt_sd              =   2.9313752486797E-01
(PID.TID 0000.0001) %MON dynstat_salt_del2            =   2.2615760333863E-02
(PID.TID 0000.0001) %MON advcfl_uvel_max              =   3.2654447027464E-02
(PID.TID 0000.0001) %MON advcfl_vvel_max              =   1.6071596544250E-02
(PID.TID 0000.0001) %MON advcfl_wvel_max              =   5.4164174739801E-02
(PID.TID 0000.0001) %MON advcfl_W_hf_max              =   6.8778599642274E-02
(PID.TID 0000.0001) %MON pe_b_mean                    =   2.9441832536365E-04
(PID.TID 0000.0001) %MON ke_max                       =   1.9066919214957E-02
(PID.TID 0000.0001) %MON ke_mean                      =   2.1282392299982E-04
(PID.TID 0000.0001) %MON ke_vol                       =   1.3226782436723E+18
(PID.TID 0000.0001) %MON vort_r_min                   =  -8.2953610897442E-07
(PID.TID 0000.0001) %MON vort_r_max                   =   6.2469675986251E-07
(PID.TID 0000.0001) %MON vort_a_mean                  =  -2.5205768774873E-05
(PID.TID 0000.0001) %MON vort_a_sd                    =   7.3403415272098E-05
(PID.TID 0000.0001) %MON vort_p_mean                  =  -3.1758668778091E-05
(PID.TID 0000.0001) %MON vort_p_sd                    =   1.3126131694697E-04
(PID.TID 0000.0001) %MON surfExpan_theta_mean         =   3.2214034305843E-06
(PID.TID 0000.0001) %MON surfExpan_salt_mean          =  -2.0312372168165E-07
(PID.TID 0000.0001) // =======================================================
(PID.TID 0000.0001) // End MONITOR dynamic field statistics
(PID.TID 0000.0001) // =======================================================
time,SST,SSS,fu,fv,Q,E-P,i0,i1,a,b =   4.7520E+06 -4.1587E-01  3.4474E+01 -1.8689E-02 -1.1950E-02  2.3212E+02  0.0000E+00     2     3  3.3333E-01  6.6667E-01
time,fu0,fu1,fu =   4.7520E+06 -1.4435E-02 -2.7199E-02 -1.8689E-02  3.3333E-01  6.6667E-01
 cg2d: Sum(rhs),rhsMax =   2.68590705232441E-13  6.91737136411204E+00
(PID.TID 0000.0001)                    cg2d_init_res =    3.38750094032464E-01
(PID.TID 0000.0001)                       cg2d_iters =    24
(PID.TID 0000.0001)                         cg2d_res =    6.11523404237501E-14
(PID.TID 0000.0001) // =======================================================
(PID.TID 0000.0001) // Begin MONITOR dynamic field statistics
(PID.TID 0000.0001) // =======================================================
(PID.TID 0000.0001) %MON time_tsnumber                =                   111
(PID.TID 0000.0001) %MON time_secondsf                =   4.7952000000000E+06
(PID.TID 0000.0001) %MON dynstat_eta_max              =   7.8611055518994E-01
(PID.TID 0000.0001) %MON dynstat_eta_min              =  -1.4480886296047E+00
(PID.TID 0000.0001) %MON dynstat_eta_mean             =  -2.7381033048144E-16
(PID.TID 0000.0001) %MON dynstat_eta_sd               =   4.8088688848237E-01
(PID.TID 0000.0001) %MON dynstat_eta_del2             =   1.8916157159188E-02
(PID.TID 0000.0001) %MON dynstat_uvel_max             =   2.0012571481933E-01
(PID.TID 0000.0001) %MON dynstat_uvel_min             =  -1.4258359945236E-01
(PID.TID 0000.0001) %MON dynstat_uvel_mean            =   9.0364648707394E-04
(PID.TID 0000.0001) %MON dynstat_uvel_sd              =   1.6311129320642E-02
(PID.TID 0000.0001) %MON dynstat_uvel_del2            =   4.6457048365655E-03
(PID.TID 0000.0001) %MON dynstat_vvel_max             =   1.6674204792192E-01
(PID.TID 0000.0001) %MON dynstat_vvel_min             =  -1.3988710341790E-01
(PID.TID 0000.0001) %MON dynstat_vvel_mean            =   1.5637180807952E-03
(PID.TID 0000.0001) %MON dynstat_vvel_sd              =   1.4296619277388E-02
(PID.TID 0000.0001) %MON dynstat_vvel_del2            =   4.1604894036836E-03
(PID.TID 0000.0001) %MON dynstat_wvel_max             =   3.3008016172572E-04
(PID.TID 0000.0001) %MON dynstat_wvel_min             =  -1.8033435584540E-04
(PID.TID 0000.0001) %MON dynstat_wvel_mean            =  -5.6911535444920E-22
(PID.TID 0000.0001) %MON dynstat_wvel_sd              =   1.9745818348037E-05
(PID.TID 0000.0001) %MON dynstat_wvel_del2            =   7.4990303748343E-06
(PID.TID 0000.0001) %MON dynstat_theta_max            =   2.9873675807441E+01
(PID.TID 0000.0001) %MON dynstat_theta_min            =  -1.9269929400878E+00
(PID.TID 0000.0001) %MON dynstat_theta_mean           =   3.5886023054819E+00
(PID.TID 0000.0001) %MON dynstat_theta_sd             =   4.3342606885438E+00
(PID.TID 0000.0001) %MON dynstat_theta_del2           =   1.2789397880716E-01
(PID.TID 0000.0001) %MON dynstat_salt_max             =   3.7383962222714E+01
(PID.TID 0000.0001) %MON dynstat_salt_min             =   2.9705600302748E+01
(PID.TID 0000.0001) %MON dynstat_salt_mean            =   3.4716018778968E+01
(PID.TID 0000.0001) %MON dynstat_salt_sd              =   2.9310508793391E-01
(PID.TID 0000.0001) %MON dynstat_salt_del2            =   2.2584159983739E-02
(PID.TID 0000.0001) %MON advcfl_uvel_max              =   3.3074338465594E-02
(PID.TID 0000.0001) %MON advcfl_vvel_max              =   1.6197652845146E-02
(PID.TID 0000.0001) %MON advcfl_wvel_max              =   5.0762409150359E-02
(PID.TID 0000.0001) %MON advcfl_W_hf_max              =   6.8159792356085E-02
(PID.TID 0000.0001) %MON pe_b_mean                    =   2.9591506276073E-04
(PID.TID 0000.0001) %MON ke_max                       =   1.9762897697414E-02
(PID.TID 0000.0001) %MON ke_mean                      =   2.1410174698237E-04
(PID.TID 0000.0001) %MON ke_vol                       =   1.3226782436723E+18
(PID.TID 0000.0001) %MON vort_r_min                   =  -8.3282301167499E-07
(PID.TID 0000.0001) %MON vort_r_max                   =   6.2894040069508E-07
(PID.TID 0000.0001) %MON vort_a_mean                  =  -2.5205768809053E-05
(PID.TID 0000.0001) %MON vort_a_sd                    =   7.3403414891580E-05
(PID.TID 0000.0001) %MON vort_p_mean                  =  -3.1758668821156E-05
(PID.TID 0000.0001) %MON vort_p_sd                    =   1.3126125948042E-04
(PID.TID 0000.0001) %MON surfExpan_theta_mean         =   2.9151098396903E-06
(PID.TID 0000.0001) %MON surfExpan_salt_mean          =  -2.4716209207242E-07
(PID.TID 0000.0001) // =======================================================
(PID.TID 0000.0001) // End MONITOR dynamic field statistics
(PID.TID 0000.0001) // =======================================================
time,SST,SSS,fu,fv,Q,E-P,i0,i1,a,b =   4.7952E+06 -4.1007E-01  3.4476E+01 -1.8902E-02 -1.1665E-02  2.3170E+02  0.0000E+00     2     3  3.5000E-01  6.5000E-01
time,fu0,fu1,fu =   4.7952E+06 -1.4435E-02 -2.7199E-02 -1.8902E-02  3.5000E-01  6.5000E-01
 cg2d: Sum(rhs),rhsMax =   7.82832132451006E-13  6.98488815477551E+00
(PID.TID 0000.0001)                    cg2d_init_res =    3.34730009073257E-01
(PID.TID 0000.0001)                       cg2d_iters =    24
(PID.TID 0000.0001)                         cg2d_res =    5.75069506957782E-14
(PID.TID 0000.0001) // =======================================================
(PID.TID 0000.0001) // Begin MONITOR dynamic field statistics
(PID.TID 0000.0001) // =======================================================
(PID.TID 0000.0001) %MON time_tsnumber                =                   112
(PID.TID 0000.0001) %MON time_secondsf                =   4.8384000000000E+06
(PID.TID 0000.0001) %MON dynstat_eta_max              =   7.9417108069117E-01
(PID.TID 0000.0001) %MON dynstat_eta_min              =  -1.4539277258137E+00
(PID.TID 0000.0001) %MON dynstat_eta_mean             =   2.1012304418819E-17
(PID.TID 0000.0001) %MON dynstat_eta_sd               =   4.8210721309790E-01
(PID.TID 0000.0001) %MON dynstat_eta_del2             =   1.8891890035754E-02
(PID.TID 0000.0001) %MON dynstat_uvel_max             =   2.0187102124029E-01
(PID.TID 0000.0001) %MON dynstat_uvel_min             =  -1.4130237746419E-01
(PID.TID 0000.0001) %MON dynstat_uvel_mean            =   9.0987066803892E-04
(PID.TID 0000.0001) %MON dynstat_uvel_sd              =   1.6387213251457E-02
(PID.TID 0000.0001) %MON dynstat_uvel_del2            =   4.6347349023447E-03
(PID.TID 0000.0001) %MON dynstat_vvel_max             =   1.6789263330565E-01
(PID.TID 0000.0001) %MON dynstat_vvel_min             =  -1.4110975509566E-01
(PID.TID 0000.0001) %MON dynstat_vvel_mean            =   1.6029744159468E-03
(PID.TID 0000.0001) %MON dynstat_vvel_sd              =   1.4295278527765E-02
(PID.TID 0000.0001) %MON dynstat_vvel_del2            =   4.1558254137825E-03
(PID.TID 0000.0001) %MON dynstat_wvel_max             =   3.2481215093044E-04
(PID.TID 0000.0001) %MON dynstat_wvel_min             =  -1.7843363508198E-04
(PID.TID 0000.0001) %MON dynstat_wvel_mean            =   1.2155873628667E-22
(PID.TID 0000.0001) %MON dynstat_wvel_sd              =   1.9660754203230E-05
(PID.TID 0000.0001) %MON dynstat_wvel_del2            =   7.4599607901700E-06
(PID.TID 0000.0001) %MON dynstat_theta_max            =   2.9877649796368E+01
(PID.TID 0000.0001) %MON dynstat_theta_min            =  -1.9270847285085E+00
(PID.TID 0000.0001) %MON dynstat_theta_mean           =   3.5886137384956E+00
(PID.TID 0000.0001) %MON dynstat_theta_sd             =   4.3343920806731E+00
(PID.TID 0000.0001) %MON dynstat_theta_del2           =   1.2776515700228E-01
(PID.TID 0000.0001) %MON dynstat_salt_max             =   3.7383502536780E+01
(PID.TID 0000.0001) %MON dynstat_salt_min             =   2.9704244680200E+01
(PID.TID 0000.0001) %MON dynstat_salt_mean            =   3.4716022285904E+01
(PID.TID 0000.0001) %MON dynstat_salt_sd              =   2.9307244748293E-01
(PID.TID 0000.0001) %MON dynstat_salt_del2            =   2.2554123815920E-02
(PID.TID 0000.0001) %MON advcfl_uvel_max              =   3.3362781434280E-02
(PID.TID 0000.0001) %MON advcfl_vvel_max              =   1.6309422988589E-02
(PID.TID 0000.0001) %MON advcfl_wvel_max              =   5.5650256751530E-02
(PID.TID 0000.0001) %MON advcfl_W_hf_max              =   6.7058880529097E-02
(PID.TID 0000.0001) %MON pe_b_mean                    =   2.9741882854469E-04
(PID.TID 0000.0001) %MON ke_max                       =   2.0340532705645E-02
(PID.TID 0000.0001) %MON ke_mean                      =   2.1527572806300E-04
(PID.TID 0000.0001) %MON ke_vol                       =   1.3226782436723E+18
(PID.TID 0000.0001) %MON vort_r_min                   =  -8.3505877080292E-07
(PID.TID 0000.0001) %MON vort_r_max                   =   6.3131796182751E-07
(PID.TID 0000.0001) %MON vort_a_mean                  =  -2.5205768842754E-05
(PID.TID 0000.0001) %MON vort_a_sd                    =   7.3403414801449E-05
(PID.TID 0000.0001) %MON vort_p_mean                  =  -3.1758668863619E-05
(PID.TID 0000.0001) %MON vort_p_sd                    =   1.3126120561113E-04
(PID.TID 0000.0001) %MON surfExpan_theta_mean         =   2.6273133794831E-06
(PID.TID 0000.0001) %MON surfExpan_salt_mean          =  -2.9286742347594E-07
(PID.TID 0000.0001) // =======================================================
(PID.TID 0000.0001) // End MONITOR dynamic field statistics
(PID.TID 0000.0001) // =======================================================
time,SST,SSS,fu,fv,Q,E-P,i0,i1,a,b =   4.8384E+06 -4.0427E-01  3.4479E+01 -1.9115E-02 -1.1381E-02  2.3128E+02  0.0000E+00     2     3  3.6667E-01  6.3333E-01
time,fu0,fu1,fu =   4.8384E+06 -1.4435E-02 -2.7199E-02 -1.9115E-02  3.6667E-01  6.3333E-01
 cg2d: Sum(rhs),rhsMax =  -8.14556755379670E-13  7.04590475328957E+00
(PID.TID 0000.0001)                    cg2d_init_res =    3.28825655749691E-01
(PID.TID 0000.0001)                       cg2d_iters =    24
(PID.TID 0000.0001)                         cg2d_res =    5.39216774597362E-14
(PID.TID 0000.0001) // =======================================================
(PID.TID 0000.0001) // Begin MONITOR dynamic field statistics
(PID.TID 0000.0001) // =======================================================
(PID.TID 0000.0001) %MON time_tsnumber                =                   113
(PID.TID 0000.0001) %MON time_secondsf                =   4.8816000000000E+06
(PID.TID 0000.0001) %MON dynstat_eta_max              =   8.0147594119379E-01
(PID.TID 0000.0001) %MON dynstat_eta_min              =  -1.4589394185857E+00
(PID.TID 0000.0001) %MON dynstat_eta_mean             =   1.8402654625389E-16
(PID.TID 0000.0001) %MON dynstat_eta_sd               =   4.8332543920821E-01
(PID.TID 0000.0001) %MON dynstat_eta_del2             =   1.8875816256091E-02
(PID.TID 0000.0001) %MON dynstat_uvel_max             =   2.0280503520768E-01
(PID.TID 0000.0001) %MON dynstat_uvel_min             =  -1.4034998208529E-01
(PID.TID 0000.0001) %MON dynstat_uvel_mean            =   9.1679266251536E-04
(PID.TID 0000.0001) %MON dynstat_uvel_sd              =   1.6453804240351E-02
(PID.TID 0000.0001) %MON dynstat_uvel_del2            =   4.6224540111301E-03
(PID.TID 0000.0001) %MON dynstat_vvel_max             =   1.6889408650091E-01
(PID.TID 0000.0001) %MON dynstat_vvel_min             =  -1.4214174563867E-01
(PID.TID 0000.0001) %MON dynstat_vvel_mean            =   1.6341725167524E-03
(PID.TID 0000.0001) %MON dynstat_vvel_sd              =   1.4295076386416E-02
(PID.TID 0000.0001) %MON dynstat_vvel_del2            =   4.1506748908821E-03
(PID.TID 0000.0001) %MON dynstat_wvel_max             =   3.1950739932824E-04
(PID.TID 0000.0001) %MON dynstat_wvel_min             =  -1.7717650788511E-04
(PID.TID 0000.0001) %MON dynstat_wvel_mean            =   7.6900642630125E-23
(PID.TID 0000.0001) %MON dynstat_wvel_sd              =   1.9571377285744E-05
(PID.TID 0000.0001) %MON dynstat_wvel_del2            =   7.4214000767342E-06
(PID.TID 0000.0001) %MON dynstat_theta_max            =   2.9881193963256E+01
(PID.TID 0000.0001) %MON dynstat_theta_min            =  -1.9271187610490E+00
(PID.TID 0000.0001) %MON dynstat_theta_mean           =   3.5886275070852E+00
(PID.TID 0000.0001) %MON dynstat_theta_sd             =   4.3345295309145E+00
(PID.TID 0000.0001) %MON dynstat_theta_del2           =   1.2763230104475E-01
(PID.TID 0000.0001) %MON dynstat_salt_max             =   3.7383040170990E+01
(PID.TID 0000.0001) %MON dynstat_salt_min             =   2.9702928292549E+01
(PID.TID 0000.0001) %MON dynstat_salt_mean            =   3.4716026315865E+01
(PID.TID 0000.0001) %MON dynstat_salt_sd              =   2.9303971291578E-01
(PID.TID 0000.0001) %MON dynstat_salt_del2            =   2.2523918687959E-02
(PID.TID 0000.0001) %MON advcfl_uvel_max              =   3.3517143876492E-02
(PID.TID 0000.0001) %MON advcfl_vvel_max              =   1.6406706135820E-02
(PID.TID 0000.0001) %MON advcfl_wvel_max              =   6.0681806667401E-02
(PID.TID 0000.0001) %MON advcfl_W_hf_max              =   6.8138520681665E-02
(PID.TID 0000.0001) %MON pe_b_mean                    =   2.9892380978649E-04
(PID.TID 0000.0001) %MON ke_max                       =   2.0790833871318E-02
(PID.TID 0000.0001) %MON ke_mean                      =   2.1631776697999E-04
(PID.TID 0000.0001) %MON ke_vol                       =   1.3226782436723E+18
(PID.TID 0000.0001) %MON vort_r_min                   =  -8.3629886059560E-07
(PID.TID 0000.0001) %MON vort_r_max                   =   6.3181974743448E-07
(PID.TID 0000.0001) %MON vort_a_mean                  =  -2.5205768875859E-05
(PID.TID 0000.0001) %MON vort_a_sd                    =   7.3403414915793E-05
(PID.TID 0000.0001) %MON vort_p_mean                  =  -3.1758668905331E-05
(PID.TID 0000.0001) %MON vort_p_sd                    =   1.3126115543743E-04
(PID.TID 0000.0001) %MON surfExpan_theta_mean         =   2.3637323386739E-06
(PID.TID 0000.0001) %MON surfExpan_salt_mean          =  -3.3909394571309E-07
(PID.TID 0000.0001) // =======================================================
(PID.TID 0000.0001) // End MONITOR dynamic field statistics
(PID.TID 0000.0001) // =======================================================
time,SST,SSS,fu,fv,Q,E-P,i0,i1,a,b =   4.8816E+06 -3.9848E-01  3.4482E+01 -1.9328E-02 -1.1097E-02  2.3087E+02  0.0000E+00     2     3  3.8333E-01  6.1667E-01
time,fu0,fu1,fu =   4.8816E+06 -1.4435E-02 -2.7199E-02 -1.9328E-02  3.8333E-01  6.1667E-01
 cg2d: Sum(rhs),rhsMax =  -4.65030791652055E-13  7.09712839965982E+00
(PID.TID 0000.0001)                    cg2d_init_res =    3.21323067820191E-01
(PID.TID 0000.0001)                       cg2d_iters =    24
(PID.TID 0000.0001)                         cg2d_res =    5.09999959734717E-14
(PID.TID 0000.0001) // =======================================================
(PID.TID 0000.0001) // Begin MONITOR dynamic field statistics
(PID.TID 0000.0001) // =======================================================
(PID.TID 0000.0001) %MON time_tsnumber                =                   114
(PID.TID 0000.0001) %MON time_secondsf                =   4.9248000000000E+06
(PID.TID 0000.0001) %MON dynstat_eta_max              =   8.0765447288202E-01
(PID.TID 0000.0001) %MON dynstat_eta_min              =  -1.4632938280653E+00
(PID.TID 0000.0001) %MON dynstat_eta_mean             =  -5.7845111912541E-17
(PID.TID 0000.0001) %MON dynstat_eta_sd               =   4.8453578940526E-01
(PID.TID 0000.0001) %MON dynstat_eta_del2             =   1.8853567606571E-02
(PID.TID 0000.0001) %MON dynstat_uvel_max             =   2.0292685389593E-01
(PID.TID 0000.0001) %MON dynstat_uvel_min             =  -1.3927723697540E-01
(PID.TID 0000.0001) %MON dynstat_uvel_mean            =   9.2411300254072E-04
(PID.TID 0000.0001) %MON dynstat_uvel_sd              =   1.6511140610850E-02
(PID.TID 0000.0001) %MON dynstat_uvel_del2            =   4.6081242882379E-03
(PID.TID 0000.0001) %MON dynstat_vvel_max             =   1.6974516789485E-01
(PID.TID 0000.0001) %MON dynstat_vvel_min             =  -1.4298633822551E-01
(PID.TID 0000.0001) %MON dynstat_vvel_mean            =   1.6575621530057E-03
(PID.TID 0000.0001) %MON dynstat_vvel_sd              =   1.4294249380690E-02
(PID.TID 0000.0001) %MON dynstat_vvel_del2            =   4.1445247223713E-03
(PID.TID 0000.0001) %MON dynstat_wvel_max             =   3.1419723788814E-04
(PID.TID 0000.0001) %MON dynstat_wvel_min             =  -1.7744016073806E-04
(PID.TID 0000.0001) %MON dynstat_wvel_mean            =   4.1446758697780E-22
(PID.TID 0000.0001) %MON dynstat_wvel_sd              =   1.9477112228096E-05
(PID.TID 0000.0001) %MON dynstat_wvel_del2            =   7.3809981527526E-06
(PID.TID 0000.0001) %MON dynstat_theta_max            =   2.9884283850842E+01
(PID.TID 0000.0001) %MON dynstat_theta_min            =  -1.9290501138413E+00
(PID.TID 0000.0001) %MON dynstat_theta_mean           =   3.5886432489211E+00
(PID.TID 0000.0001) %MON dynstat_theta_sd             =   4.3346714419210E+00
(PID.TID 0000.0001) %MON dynstat_theta_del2           =   1.2749368644441E-01
(PID.TID 0000.0001) %MON dynstat_salt_max             =   3.7382576471346E+01
(PID.TID 0000.0001) %MON dynstat_salt_min             =   2.9701651335475E+01
(PID.TID 0000.0001) %MON dynstat_salt_mean            =   3.4716030852718E+01
(PID.TID 0000.0001) %MON dynstat_salt_sd              =   2.9300696503514E-01
(PID.TID 0000.0001) %MON dynstat_salt_del2            =   2.2493644907620E-02
(PID.TID 0000.0001) %MON advcfl_uvel_max              =   3.3537276584226E-02
(PID.TID 0000.0001) %MON advcfl_vvel_max              =   1.6489381868389E-02
(PID.TID 0000.0001) %MON advcfl_wvel_max              =   6.4270275576398E-02
(PID.TID 0000.0001) %MON advcfl_W_hf_max              =   7.2174799874093E-02
(PID.TID 0000.0001) %MON pe_b_mean                    =   3.0042282257611E-04
(PID.TID 0000.0001) %MON ke_max                       =   2.1107519287460E-02
(PID.TID 0000.0001) %MON ke_mean                      =   2.1720653665296E-04
(PID.TID 0000.0001) %MON ke_vol                       =   1.3226782436723E+18
(PID.TID 0000.0001) %MON vort_r_min                   =  -8.3660662434856E-07
(PID.TID 0000.0001) %MON vort_r_max                   =   6.3046069732887E-07
(PID.TID 0000.0001) %MON vort_a_mean                  =  -2.5205768908115E-05
(PID.TID 0000.0001) %MON vort_a_sd                    =   7.3403415144046E-05
(PID.TID 0000.0001) %MON vort_p_mean                  =  -3.1758668945973E-05
(PID.TID 0000.0001) %MON vort_p_sd                    =   1.3126110896836E-04
(PID.TID 0000.0001) %MON surfExpan_theta_mean         =   2.1307601479388E-06
(PID.TID 0000.0001) %MON surfExpan_salt_mean          =  -3.8464000084080E-07
(PID.TID 0000.0001) // =======================================================
(PID.TID 0000.0001) // End MONITOR dynamic field statistics
(PID.TID 0000.0001) // =======================================================
time,SST,SSS,fu,fv,Q,E-P,i0,i1,a,b =   4.9248E+06 -3.9268E-01  3.4484E+01 -1.9540E-02 -1.0813E-02  2.3045E+02  0.0000E+00     2     3  4.0000E-01  6.0000E-01
time,fu0,fu1,fu =   4.9248E+06 -1.4435E-02 -2.7199E-02 -1.9540E-02  4.0000E-01  6.0000E-01
 cg2d: Sum(rhs),rhsMax =  -6.98399671428263E-13  7.13562348870896E+00
(PID.TID 0000.0001)                    cg2d_init_res =    3.12662116511137E-01
(PID.TID 0000.0001)                       cg2d_iters =    24
(PID.TID 0000.0001)                         cg2d_res =    4.92032747124496E-14
(PID.TID 0000.0001) // =======================================================
(PID.TID 0000.0001) // Begin MONITOR dynamic field statistics
(PID.TID 0000.0001) // =======================================================
(PID.TID 0000.0001) %MON time_tsnumber                =                   115
(PID.TID 0000.0001) %MON time_secondsf                =   4.9680000000000E+06
(PID.TID 0000.0001) %MON dynstat_eta_max              =   8.1237654192960E-01
(PID.TID 0000.0001) %MON dynstat_eta_min              =  -1.4671566653991E+00
(PID.TID 0000.0001) %MON dynstat_eta_mean             =  -2.2513593924827E-17
(PID.TID 0000.0001) %MON dynstat_eta_sd               =   4.8573193748082E-01
(PID.TID 0000.0001) %MON dynstat_eta_del2             =   1.8843600719293E-02
(PID.TID 0000.0001) %MON dynstat_uvel_max             =   2.0225032468476E-01
(PID.TID 0000.0001) %MON dynstat_uvel_min             =  -1.3809159886415E-01
(PID.TID 0000.0001) %MON dynstat_uvel_mean            =   9.3150949931853E-04
(PID.TID 0000.0001) %MON dynstat_uvel_sd              =   1.6559845125700E-02
(PID.TID 0000.0001) %MON dynstat_uvel_del2            =   4.5921798281334E-03
(PID.TID 0000.0001) %MON dynstat_vvel_max             =   1.7044542425435E-01
(PID.TID 0000.0001) %MON dynstat_vvel_min             =  -1.4364868278620E-01
(PID.TID 0000.0001) %MON dynstat_vvel_mean            =   1.6735189341415E-03
(PID.TID 0000.0001) %MON dynstat_vvel_sd              =   1.4291050576048E-02
(PID.TID 0000.0001) %MON dynstat_vvel_del2            =   4.1380703621998E-03
(PID.TID 0000.0001) %MON dynstat_wvel_max             =   3.0890764824373E-04
(PID.TID 0000.0001) %MON dynstat_wvel_min             =  -1.7712863062706E-04
(PID.TID 0000.0001) %MON dynstat_wvel_mean            =  -2.9430692781875E-23
(PID.TID 0000.0001) %MON dynstat_wvel_sd              =   1.9377840593327E-05
(PID.TID 0000.0001) %MON dynstat_wvel_del2            =   7.3398816390482E-06
(PID.TID 0000.0001) %MON dynstat_theta_max            =   2.9886901876189E+01
(PID.TID 0000.0001) %MON dynstat_theta_min            =  -1.9280857101175E+00
(PID.TID 0000.0001) %MON dynstat_theta_mean           =   3.5886605444074E+00
(PID.TID 0000.0001) %MON dynstat_theta_sd             =   4.3348159398884E+00
(PID.TID 0000.0001) %MON dynstat_theta_del2           =   1.2735355419989E-01
(PID.TID 0000.0001) %MON dynstat_salt_max             =   3.7382112979196E+01
(PID.TID 0000.0001) %MON dynstat_salt_min             =   2.9700413782408E+01
(PID.TID 0000.0001) %MON dynstat_salt_mean            =   3.4716035866235E+01
(PID.TID 0000.0001) %MON dynstat_salt_sd              =   2.9297425976064E-01
(PID.TID 0000.0001) %MON dynstat_salt_del2            =   2.2463960131369E-02
(PID.TID 0000.0001) %MON advcfl_uvel_max              =   3.3425468083594E-02
(PID.TID 0000.0001) %MON advcfl_vvel_max              =   1.6557406158333E-02
(PID.TID 0000.0001) %MON advcfl_wvel_max              =   6.6544576853337E-02
(PID.TID 0000.0001) %MON advcfl_W_hf_max              =   7.4729543842285E-02
(PID.TID 0000.0001) %MON pe_b_mean                    =   3.0190792953173E-04
(PID.TID 0000.0001) %MON ke_max                       =   2.1287150326364E-02
(PID.TID 0000.0001) %MON ke_mean                      =   2.1792735240673E-04
(PID.TID 0000.0001) %MON ke_vol                       =   1.3226782436723E+18
(PID.TID 0000.0001) %MON vort_r_min                   =  -8.3605168524528E-07
(PID.TID 0000.0001) %MON vort_r_max                   =   6.2728135007937E-07
(PID.TID 0000.0001) %MON vort_a_mean                  =  -2.5205768939521E-05
(PID.TID 0000.0001) %MON vort_a_sd                    =   7.3403415389561E-05
(PID.TID 0000.0001) %MON vort_p_mean                  =  -3.1758668985543E-05
(PID.TID 0000.0001) %MON vort_p_sd                    =   1.3126106622417E-04
(PID.TID 0000.0001) %MON surfExpan_theta_mean         =   1.9342386293133E-06
(PID.TID 0000.0001) %MON surfExpan_salt_mean          =  -4.2835855955324E-07
(PID.TID 0000.0001) // =======================================================
(PID.TID 0000.0001) // End MONITOR dynamic field statistics
(PID.TID 0000.0001) // =======================================================
time,SST,SSS,fu,fv,Q,E-P,i0,i1,a,b =   4.9680E+06 -3.8688E-01  3.4487E+01 -1.9753E-02 -1.0528E-02  2.3003E+02  0.0000E+00     2     3  4.1667E-01  5.8333E-01
time,fu0,fu1,fu =   4.9680E+06 -1.4435E-02 -2.7199E-02 -1.9753E-02  4.1667E-01  5.8333E-01
 cg2d: Sum(rhs),rhsMax =  -1.25177646026486E-14  7.15894868537902E+00
(PID.TID 0000.0001)                    cg2d_init_res =    3.03393776111395E-01
(PID.TID 0000.0001)                       cg2d_iters =    24
(PID.TID 0000.0001)                         cg2d_res =    4.88629144246230E-14
(PID.TID 0000.0001) // =======================================================
(PID.TID 0000.0001) // Begin MONITOR dynamic field statistics
(PID.TID 0000.0001) // =======================================================
(PID.TID 0000.0001) %MON time_tsnumber                =                   116
(PID.TID 0000.0001) %MON time_secondsf                =   5.0112000000000E+06
(PID.TID 0000.0001) %MON dynstat_eta_max              =   8.1536774573266E-01
(PID.TID 0000.0001) %MON dynstat_eta_min              =  -1.4706829170829E+00
(PID.TID 0000.0001) %MON dynstat_eta_mean             =   1.6488918422088E-16
(PID.TID 0000.0001) %MON dynstat_eta_sd               =   4.8690764646567E-01
(PID.TID 0000.0001) %MON dynstat_eta_del2             =   1.8854166697448E-02
(PID.TID 0000.0001) %MON dynstat_uvel_max             =   2.0080339429493E-01
(PID.TID 0000.0001) %MON dynstat_uvel_min             =  -1.3680119864490E-01
(PID.TID 0000.0001) %MON dynstat_uvel_mean            =   9.3863742065583E-04
(PID.TID 0000.0001) %MON dynstat_uvel_sd              =   1.6600797428210E-02
(PID.TID 0000.0001) %MON dynstat_uvel_del2            =   4.5754002161994E-03
(PID.TID 0000.0001) %MON dynstat_vvel_max             =   1.7099512271737E-01
(PID.TID 0000.0001) %MON dynstat_vvel_min             =  -1.4413561858241E-01
(PID.TID 0000.0001) %MON dynstat_vvel_mean            =   1.6825217878987E-03
(PID.TID 0000.0001) %MON dynstat_vvel_sd              =   1.4283854617303E-02
(PID.TID 0000.0001) %MON dynstat_vvel_del2            =   4.1304509815479E-03
(PID.TID 0000.0001) %MON dynstat_wvel_max             =   3.0366200062455E-04
(PID.TID 0000.0001) %MON dynstat_wvel_min             =  -1.7628564054187E-04
(PID.TID 0000.0001) %MON dynstat_wvel_mean            =   9.8679225708538E-23
(PID.TID 0000.0001) %MON dynstat_wvel_sd              =   1.9273724184708E-05
(PID.TID 0000.0001) %MON dynstat_wvel_del2            =   7.2975784021558E-06
(PID.TID 0000.0001) %MON dynstat_theta_max            =   2.9888962422468E+01
(PID.TID 0000.0001) %MON dynstat_theta_min            =  -1.9277394026265E+00
(PID.TID 0000.0001) %MON dynstat_theta_mean           =   3.5886788985890E+00
(PID.TID 0000.0001) %MON dynstat_theta_sd             =   4.3349609952127E+00
(PID.TID 0000.0001) %MON dynstat_theta_del2           =   1.2721371816093E-01
(PID.TID 0000.0001) %MON dynstat_salt_max             =   3.7381651410413E+01
(PID.TID 0000.0001) %MON dynstat_salt_min             =   2.9699215353720E+01
(PID.TID 0000.0001) %MON dynstat_salt_mean            =   3.4716041314079E+01
(PID.TID 0000.0001) %MON dynstat_salt_sd              =   2.9294160105162E-01
(PID.TID 0000.0001) %MON dynstat_salt_del2            =   2.2437012458097E-02
(PID.TID 0000.0001) %MON advcfl_uvel_max              =   3.3186337067909E-02
(PID.TID 0000.0001) %MON advcfl_vvel_max              =   1.6610804955964E-02
(PID.TID 0000.0001) %MON advcfl_wvel_max              =   6.7667384712120E-02
(PID.TID 0000.0001) %MON advcfl_W_hf_max              =   7.5818124268455E-02
(PID.TID 0000.0001) %MON pe_b_mean                    =   3.0337122820069E-04
(PID.TID 0000.0001) %MON ke_max                       =   2.1329163571281E-02
(PID.TID 0000.0001) %MON ke_mean                      =   2.1847162142107E-04
(PID.TID 0000.0001) %MON ke_vol                       =   1.3226782436723E+18
(PID.TID 0000.0001) %MON vort_r_min                   =  -8.3470837054041E-07
(PID.TID 0000.0001) %MON vort_r_max                   =   6.2234811778985E-07
(PID.TID 0000.0001) %MON vort_a_mean                  =  -2.5205768969777E-05
(PID.TID 0000.0001) %MON vort_a_sd                    =   7.3403415556928E-05
(PID.TID 0000.0001) %MON vort_p_mean                  =  -3.1758669023666E-05
(PID.TID 0000.0001) %MON vort_p_sd                    =   1.3126102710911E-04
(PID.TID 0000.0001) %MON surfExpan_theta_mean         =   1.7799004581013E-06
(PID.TID 0000.0001) %MON surfExpan_salt_mean          =  -4.6910437202237E-07
(PID.TID 0000.0001) // =======================================================
(PID.TID 0000.0001) // End MONITOR dynamic field statistics
(PID.TID 0000.0001) // =======================================================
time,SST,SSS,fu,fv,Q,E-P,i0,i1,a,b =   5.0112E+06 -3.8108E-01  3.4490E+01 -1.9966E-02 -1.0244E-02  2.2961E+02  0.0000E+00     2     3  4.3333E-01  5.6667E-01
time,fu0,fu1,fu =   5.0112E+06 -1.4435E-02 -2.7199E-02 -1.9966E-02  4.3333E-01  5.6667E-01
 cg2d: Sum(rhs),rhsMax =   3.49303919122690E-14  7.16526402155296E+00
(PID.TID 0000.0001)                    cg2d_init_res =    2.94125370917880E-01
(PID.TID 0000.0001)                       cg2d_iters =    24
(PID.TID 0000.0001)                         cg2d_res =    5.00423846811264E-14
(PID.TID 0000.0001) // =======================================================
(PID.TID 0000.0001) // Begin MONITOR dynamic field statistics
(PID.TID 0000.0001) // =======================================================
(PID.TID 0000.0001) %MON time_tsnumber                =                   117
(PID.TID 0000.0001) %MON time_secondsf                =   5.0544000000000E+06
(PID.TID 0000.0001) %MON dynstat_eta_max              =   8.1642132113695E-01
(PID.TID 0000.0001) %MON dynstat_eta_min              =  -1.4740116200441E+00
(PID.TID 0000.0001) %MON dynstat_eta_mean             =  -8.4152700559986E-17
(PID.TID 0000.0001) %MON dynstat_eta_sd               =   4.8805744620183E-01
(PID.TID 0000.0001) %MON dynstat_eta_del2             =   1.8856783037686E-02
(PID.TID 0000.0001) %MON dynstat_uvel_max             =   1.9862724487546E-01
(PID.TID 0000.0001) %MON dynstat_uvel_min             =  -1.3618146731104E-01
(PID.TID 0000.0001) %MON dynstat_uvel_mean            =   9.4514020073857E-04
(PID.TID 0000.0001) %MON dynstat_uvel_sd              =   1.6635002785307E-02
(PID.TID 0000.0001) %MON dynstat_uvel_del2            =   4.5586486875229E-03
(PID.TID 0000.0001) %MON dynstat_vvel_max             =   1.7139516711669E-01
(PID.TID 0000.0001) %MON dynstat_vvel_min             =  -1.4445545933764E-01
(PID.TID 0000.0001) %MON dynstat_vvel_mean            =   1.6851302325801E-03
(PID.TID 0000.0001) %MON dynstat_vvel_sd              =   1.4271252575721E-02
(PID.TID 0000.0001) %MON dynstat_vvel_del2            =   4.1223218570742E-03
(PID.TID 0000.0001) %MON dynstat_wvel_max             =   2.9848070794922E-04
(PID.TID 0000.0001) %MON dynstat_wvel_min             =  -1.7551350697777E-04
(PID.TID 0000.0001) %MON dynstat_wvel_mean            =  -7.0875528496423E-23
(PID.TID 0000.0001) %MON dynstat_wvel_sd              =   1.9165199653171E-05
(PID.TID 0000.0001) %MON dynstat_wvel_del2            =   7.2527131707733E-06
(PID.TID 0000.0001) %MON dynstat_theta_max            =   2.9890412059413E+01
(PID.TID 0000.0001) %MON dynstat_theta_min            =  -1.9273585651614E+00
(PID.TID 0000.0001) %MON dynstat_theta_mean           =   3.5886977465253E+00
(PID.TID 0000.0001) %MON dynstat_theta_sd             =   4.3351044856688E+00
(PID.TID 0000.0001) %MON dynstat_theta_del2           =   1.2708977584443E-01
(PID.TID 0000.0001) %MON dynstat_salt_max             =   3.7381193400306E+01
(PID.TID 0000.0001) %MON dynstat_salt_min             =   2.9698055490089E+01
(PID.TID 0000.0001) %MON dynstat_salt_mean            =   3.4716047141065E+01
(PID.TID 0000.0001) %MON dynstat_salt_sd              =   2.9290938632570E-01
(PID.TID 0000.0001) %MON dynstat_salt_del2            =   2.2414960305986E-02
(PID.TID 0000.0001) %MON advcfl_uvel_max              =   3.2826689620722E-02
(PID.TID 0000.0001) %MON advcfl_vvel_max              =   1.6649666061388E-02
(PID.TID 0000.0001) %MON advcfl_wvel_max              =   6.7368767590638E-02
(PID.TID 0000.0001) %MON advcfl_W_hf_max              =   7.5490069333507E-02
(PID.TID 0000.0001) %MON pe_b_mean                    =   3.0480570150854E-04
(PID.TID 0000.0001) %MON ke_max                       =   2.1235816848178E-02
(PID.TID 0000.0001) %MON ke_mean                      =   2.1883606143972E-04
(PID.TID 0000.0001) %MON ke_vol                       =   1.3226782436723E+18
(PID.TID 0000.0001) %MON vort_r_min                   =  -8.3265413986459E-07
(PID.TID 0000.0001) %MON vort_r_max                   =   6.1575276685410E-07
(PID.TID 0000.0001) %MON vort_a_mean                  =  -2.5205768998587E-05
(PID.TID 0000.0001) %MON vort_a_sd                    =   7.3403415551346E-05
(PID.TID 0000.0001) %MON vort_p_mean                  =  -3.1758669059965E-05
(PID.TID 0000.0001) %MON vort_p_sd                    =   1.3126099147489E-04
(PID.TID 0000.0001) %MON surfExpan_theta_mean         =   1.6725075338227E-06
(PID.TID 0000.0001) %MON surfExpan_salt_mean          =  -5.0577882824930E-07
(PID.TID 0000.0001) // =======================================================
(PID.TID 0000.0001) // End MONITOR dynamic field statistics
(PID.TID 0000.0001) // =======================================================
time,SST,SSS,fu,fv,Q,E-P,i0,i1,a,b =   5.0544E+06 -3.7528E-01  3.4492E+01 -2.0179E-02 -9.9597E-03  2.2919E+02  0.0000E+00     2     3  4.5000E-01  5.5000E-01
time,fu0,fu1,fu =   5.0544E+06 -1.4435E-02 -2.7199E-02 -2.0179E-02  4.5000E-01  5.5000E-01
 cg2d: Sum(rhs),rhsMax =   3.54466456187197E-13  7.15340811126701E+00
(PID.TID 0000.0001)                    cg2d_init_res =    2.85501735504958E-01
(PID.TID 0000.0001)                       cg2d_iters =    24
(PID.TID 0000.0001)                         cg2d_res =    5.23404222886478E-14
(PID.TID 0000.0001) // =======================================================
(PID.TID 0000.0001) // Begin MONITOR dynamic field statistics
(PID.TID 0000.0001) // =======================================================
(PID.TID 0000.0001) %MON time_tsnumber                =                   118
(PID.TID 0000.0001) %MON time_secondsf                =   5.0976000000000E+06
(PID.TID 0000.0001) %MON dynstat_eta_max              =   8.1540657726176E-01
(PID.TID 0000.0001) %MON dynstat_eta_min              =  -1.4772617890788E+00
(PID.TID 0000.0001) %MON dynstat_eta_mean             =  -2.4280343251495E-16
(PID.TID 0000.0001) %MON dynstat_eta_sd               =   4.8917726931916E-01
(PID.TID 0000.0001) %MON dynstat_eta_del2             =   1.8874646672499E-02
(PID.TID 0000.0001) %MON dynstat_uvel_max             =   1.9577512150616E-01
(PID.TID 0000.0001) %MON dynstat_uvel_min             =  -1.3621416220256E-01
(PID.TID 0000.0001) %MON dynstat_uvel_mean            =   9.5065550386864E-04
(PID.TID 0000.0001) %MON dynstat_uvel_sd              =   1.6663467461736E-02
(PID.TID 0000.0001) %MON dynstat_uvel_del2            =   4.5432994269580E-03
(PID.TID 0000.0001) %MON dynstat_vvel_max             =   1.7164700419272E-01
(PID.TID 0000.0001) %MON dynstat_vvel_min             =  -1.4461776253607E-01
(PID.TID 0000.0001) %MON dynstat_vvel_mean            =   1.6819595015054E-03
(PID.TID 0000.0001) %MON dynstat_vvel_sd              =   1.4252134462012E-02
(PID.TID 0000.0001) %MON dynstat_vvel_del2            =   4.1127145942241E-03
(PID.TID 0000.0001) %MON dynstat_wvel_max             =   2.9338093985040E-04
(PID.TID 0000.0001) %MON dynstat_wvel_min             =  -1.7576823757407E-04
(PID.TID 0000.0001) %MON dynstat_wvel_mean            =   1.4730663618760E-22
(PID.TID 0000.0001) %MON dynstat_wvel_sd              =   1.9052934194781E-05
(PID.TID 0000.0001) %MON dynstat_wvel_del2            =   7.2075959366276E-06
(PID.TID 0000.0001) %MON dynstat_theta_max            =   2.9891205925024E+01
(PID.TID 0000.0001) %MON dynstat_theta_min            =  -1.9327922801902E+00
(PID.TID 0000.0001) %MON dynstat_theta_mean           =   3.5887164724602E+00
(PID.TID 0000.0001) %MON dynstat_theta_sd             =   4.3352456345626E+00
(PID.TID 0000.0001) %MON dynstat_theta_del2           =   1.2694488265123E-01
(PID.TID 0000.0001) %MON dynstat_salt_max             =   3.7380740428725E+01
(PID.TID 0000.0001) %MON dynstat_salt_min             =   2.9696933332164E+01
(PID.TID 0000.0001) %MON dynstat_salt_mean            =   3.4716053281592E+01
(PID.TID 0000.0001) %MON dynstat_salt_sd              =   2.9287807533350E-01
(PID.TID 0000.0001) %MON dynstat_salt_del2            =   2.2388802053736E-02
(PID.TID 0000.0001) %MON advcfl_uvel_max              =   3.2355325439727E-02
(PID.TID 0000.0001) %MON advcfl_vvel_max              =   1.6674130013833E-02
(PID.TID 0000.0001) %MON advcfl_wvel_max              =   6.5730579704780E-02
(PID.TID 0000.0001) %MON advcfl_W_hf_max              =   7.3827171372073E-02
(PID.TID 0000.0001) %MON pe_b_mean                    =   3.0620602867886E-04
(PID.TID 0000.0001) %MON ke_max                       =   2.1012067142312E-02
(PID.TID 0000.0001) %MON ke_mean                      =   2.1902181724192E-04
(PID.TID 0000.0001) %MON ke_vol                       =   1.3226782436723E+18
(PID.TID 0000.0001) %MON vort_r_min                   =  -8.2996807103191E-07
(PID.TID 0000.0001) %MON vort_r_max                   =   6.0761109139553E-07
(PID.TID 0000.0001) %MON vort_a_mean                  =  -2.5205769024235E-05
(PID.TID 0000.0001) %MON vort_a_sd                    =   7.3403415295108E-05
(PID.TID 0000.0001) %MON vort_p_mean                  =  -3.1758669092281E-05
(PID.TID 0000.0001) %MON vort_p_sd                    =   1.3126095918164E-04
(PID.TID 0000.0001) %MON surfExpan_theta_mean         =   1.6181957699212E-06
(PID.TID 0000.0001) %MON surfExpan_salt_mean          =  -5.3714475714910E-07
(PID.TID 0000.0001) // =======================================================
(PID.TID 0000.0001) // End MONITOR dynamic field statistics
(PID.TID 0000.0001) // =======================================================
time,SST,SSS,fu,fv,Q,E-P,i0,i1,a,b =   5.0976E+06 -3.6948E-01  3.4495E+01 -2.0391E-02 -9.6754E-03  2.2877E+02  0.0000E+00     2     3  4.6667E-01  5.3333E-01
time,fu0,fu1,fu =   5.0976E+06 -1.4435E-02 -2.7199E-02 -2.0391E-02  4.6667E-01  5.3333E-01
 cg2d: Sum(rhs),rhsMax =  -1.83686399424232E-13  7.12293509522224E+00
(PID.TID 0000.0001)                    cg2d_init_res =    2.78011804994937E-01
(PID.TID 0000.0001)                       cg2d_iters =    24
(PID.TID 0000.0001)                         cg2d_res =    5.51215829618113E-14
(PID.TID 0000.0001) // =======================================================
(PID.TID 0000.0001) // Begin MONITOR dynamic field statistics
(PID.TID 0000.0001) // =======================================================
(PID.TID 0000.0001) %MON time_tsnumber                =                   119
(PID.TID 0000.0001) %MON time_secondsf                =   5.1408000000000E+06
(PID.TID 0000.0001) %MON dynstat_eta_max              =   8.1227308089058E-01
(PID.TID 0000.0001) %MON dynstat_eta_min              =  -1.4805295543722E+00
(PID.TID 0000.0001) %MON dynstat_eta_mean             =   1.3351291723574E-16
(PID.TID 0000.0001) %MON dynstat_eta_sd               =   4.9026490625574E-01
(PID.TID 0000.0001) %MON dynstat_eta_del2             =   1.8903271534298E-02
(PID.TID 0000.0001) %MON dynstat_uvel_max             =   1.9231123737244E-01
(PID.TID 0000.0001) %MON dynstat_uvel_min             =  -1.3619054639981E-01
(PID.TID 0000.0001) %MON dynstat_uvel_mean            =   9.5483027631694E-04
(PID.TID 0000.0001) %MON dynstat_uvel_sd              =   1.6687087718488E-02
(PID.TID 0000.0001) %MON dynstat_uvel_del2            =   4.5289514929664E-03
(PID.TID 0000.0001) %MON dynstat_vvel_max             =   1.7175252198084E-01
(PID.TID 0000.0001) %MON dynstat_vvel_min             =  -1.4463308776081E-01
(PID.TID 0000.0001) %MON dynstat_vvel_mean            =   1.6736649211703E-03
(PID.TID 0000.0001) %MON dynstat_vvel_sd              =   1.4225749426902E-02
(PID.TID 0000.0001) %MON dynstat_vvel_del2            =   4.1027796822259E-03
(PID.TID 0000.0001) %MON dynstat_wvel_max             =   2.8837658423807E-04
(PID.TID 0000.0001) %MON dynstat_wvel_min             =  -1.7589641287950E-04
(PID.TID 0000.0001) %MON dynstat_wvel_mean            =  -1.3861030571039E-22
(PID.TID 0000.0001) %MON dynstat_wvel_sd              =   1.8937544053182E-05
(PID.TID 0000.0001) %MON dynstat_wvel_del2            =   7.1634960834391E-06
(PID.TID 0000.0001) %MON dynstat_theta_max            =   2.9891307649859E+01
(PID.TID 0000.0001) %MON dynstat_theta_min            =  -1.9305193644366E+00
(PID.TID 0000.0001) %MON dynstat_theta_mean           =   3.5887344403579E+00
(PID.TID 0000.0001) %MON dynstat_theta_sd             =   4.3353775386931E+00
(PID.TID 0000.0001) %MON dynstat_theta_del2           =   1.2694102953351E-01
(PID.TID 0000.0001) %MON dynstat_salt_max             =   3.7380293705434E+01
(PID.TID 0000.0001) %MON dynstat_salt_min             =   2.9695847708485E+01
(PID.TID 0000.0001) %MON dynstat_salt_mean            =   3.4716059654860E+01
(PID.TID 0000.0001) %MON dynstat_salt_sd              =   2.9284364945471E-01
(PID.TID 0000.0001) %MON dynstat_salt_del2            =   2.2391782726291E-02
(PID.TID 0000.0001) %MON advcfl_uvel_max              =   3.1782856897402E-02
(PID.TID 0000.0001) %MON advcfl_vvel_max              =   1.6684380220798E-02
(PID.TID 0000.0001) %MON advcfl_wvel_max              =   6.2863122363796E-02
(PID.TID 0000.0001) %MON advcfl_W_hf_max              =   7.0939223346211E-02
(PID.TID 0000.0001) %MON pe_b_mean                    =   3.0756917962490E-04
(PID.TID 0000.0001) %MON ke_max                       =   2.0665391128247E-02
(PID.TID 0000.0001) %MON ke_mean                      =   2.1903348987298E-04
(PID.TID 0000.0001) %MON ke_vol                       =   1.3226782436723E+18
(PID.TID 0000.0001) %MON vort_r_min                   =  -8.2672941105247E-07
(PID.TID 0000.0001) %MON vort_r_max                   =   5.9806086757001E-07
(PID.TID 0000.0001) %MON vort_a_mean                  =  -2.5205769049284E-05
(PID.TID 0000.0001) %MON vort_a_sd                    =   7.3403414671851E-05
(PID.TID 0000.0001) %MON vort_p_mean                  =  -3.1758669123842E-05
(PID.TID 0000.0001) %MON vort_p_sd                    =   1.3126092983438E-04
(PID.TID 0000.0001) %MON surfExpan_theta_mean         =   1.6172763015450E-06
(PID.TID 0000.0001) %MON surfExpan_salt_mean          =  -5.6282593712000E-07
(PID.TID 0000.0001) // =======================================================
(PID.TID 0000.0001) // End MONITOR dynamic field statistics
(PID.TID 0000.0001) // =======================================================
time,SST,SSS,fu,fv,Q,E-P,i0,i1,a,b =   5.1408E+06 -3.6368E-01  3.4497E+01 -2.0604E-02 -9.3911E-03  2.2836E+02  0.0000E+00     2     3  4.8333E-01  5.1667E-01
time,fu0,fu1,fu =   5.1408E+06 -1.4435E-02 -2.7199E-02 -2.0604E-02  4.8333E-01  5.1667E-01
 cg2d: Sum(rhs),rhsMax =  -1.90930604659911E-13  7.07410832745053E+00
(PID.TID 0000.0001)                    cg2d_init_res =    2.72257106082864E-01
(PID.TID 0000.0001)                       cg2d_iters =    24
(PID.TID 0000.0001)                         cg2d_res =    5.74794007057352E-14
(PID.TID 0000.0001) // =======================================================
(PID.TID 0000.0001) // Begin MONITOR dynamic field statistics
(PID.TID 0000.0001) // =======================================================
(PID.TID 0000.0001) %MON time_tsnumber                =                   120
(PID.TID 0000.0001) %MON time_secondsf                =   5.1840000000000E+06
(PID.TID 0000.0001) %MON dynstat_eta_max              =   8.0705031914285E-01
(PID.TID 0000.0001) %MON dynstat_eta_min              =  -1.4838863866094E+00
(PID.TID 0000.0001) %MON dynstat_eta_mean             =   2.9170385960914E-17
(PID.TID 0000.0001) %MON dynstat_eta_sd               =   4.9132046262460E-01
(PID.TID 0000.0001) %MON dynstat_eta_del2             =   1.8916865394701E-02
(PID.TID 0000.0001) %MON dynstat_uvel_max             =   1.8830940166253E-01
(PID.TID 0000.0001) %MON dynstat_uvel_min             =  -1.3611341125284E-01
(PID.TID 0000.0001) %MON dynstat_uvel_mean            =   9.5732624745677E-04
(PID.TID 0000.0001) %MON dynstat_uvel_sd              =   1.6706563009949E-02
(PID.TID 0000.0001) %MON dynstat_uvel_del2            =   4.5159278019972E-03
(PID.TID 0000.0001) %MON dynstat_vvel_max             =   1.7171394290887E-01
(PID.TID 0000.0001) %MON dynstat_vvel_min             =  -1.4451275033757E-01
(PID.TID 0000.0001) %MON dynstat_vvel_mean            =   1.6608736601181E-03
(PID.TID 0000.0001) %MON dynstat_vvel_sd              =   1.4191760609335E-02
(PID.TID 0000.0001) %MON dynstat_vvel_del2            =   4.0926552355706E-03
(PID.TID 0000.0001) %MON dynstat_wvel_max             =   2.8347834992030E-04
(PID.TID 0000.0001) %MON dynstat_wvel_min             =  -1.7569162297240E-04
(PID.TID 0000.0001) %MON dynstat_wvel_mean            =  -4.4147354293989E-22
(PID.TID 0000.0001) %MON dynstat_wvel_sd              =   1.8819503440634E-05
(PID.TID 0000.0001) %MON dynstat_wvel_del2            =   7.1188256934512E-06
(PID.TID 0000.0001) %MON dynstat_theta_max            =   2.9890676181634E+01
(PID.TID 0000.0001) %MON dynstat_theta_min            =  -1.9280847418020E+00
(PID.TID 0000.0001) %MON dynstat_theta_mean           =   3.5887509588838E+00
(PID.TID 0000.0001) %MON dynstat_theta_sd             =   4.3355059923260E+00
(PID.TID 0000.0001) %MON dynstat_theta_del2           =   1.2680423308605E-01
(PID.TID 0000.0001) %MON dynstat_salt_max             =   3.7379850212402E+01
(PID.TID 0000.0001) %MON dynstat_salt_min             =   2.9694797133307E+01
(PID.TID 0000.0001) %MON dynstat_salt_mean            =   3.4716066179503E+01
(PID.TID 0000.0001) %MON dynstat_salt_sd              =   2.9281351588950E-01
(PID.TID 0000.0001) %MON dynstat_salt_del2            =   2.2367610975964E-02
(PID.TID 0000.0001) %MON advcfl_uvel_max              =   3.1121482276591E-02
(PID.TID 0000.0001) %MON advcfl_vvel_max              =   1.6680632573324E-02
(PID.TID 0000.0001) %MON advcfl_wvel_max              =   5.8901004984520E-02
(PID.TID 0000.0001) %MON advcfl_W_hf_max              =   6.6959920859879E-02
(PID.TID 0000.0001) %MON pe_b_mean                    =   3.0889501837213E-04
(PID.TID 0000.0001) %MON ke_max                       =   2.0205526413902E-02
(PID.TID 0000.0001) %MON ke_mean                      =   2.1887834894825E-04
(PID.TID 0000.0001) %MON ke_vol                       =   1.3226782436723E+18
(PID.TID 0000.0001) %MON vort_r_min                   =  -8.2301622259417E-07
(PID.TID 0000.0001) %MON vort_r_max                   =   5.8725917559394E-07
(PID.TID 0000.0001) %MON vort_a_mean                  =  -2.5205769072562E-05
(PID.TID 0000.0001) %MON vort_a_sd                    =   7.3403413610626E-05
(PID.TID 0000.0001) %MON vort_p_mean                  =  -3.1758669153173E-05
(PID.TID 0000.0001) %MON vort_p_sd                    =   1.3126090316874E-04
(PID.TID 0000.0001) %MON surfExpan_theta_mean         =   1.6769029943201E-06
(PID.TID 0000.0001) %MON surfExpan_salt_mean          =  -5.8081073045022E-07
(PID.TID 0000.0001) // =======================================================
(PID.TID 0000.0001) // End MONITOR dynamic field statistics
(PID.TID 0000.0001) // =======================================================
(PID.TID 0000.0001) // Time-average data written, t-step       120
(PID.TID 0000.0001) 
  --> objf_test(bi,bj)   =  0.
  --> objf_tracer(bi,bj) =  0.
  --> objf_atl(bi,bj)    = -0.135436441
  local fc =  -0.135436441
  global fc =  -0.135436441
(PID.TID 0000.0001)  MDSREADVECTOR: opening file: tapelev3_2_the_main_loop_gs.it0000.001.001.data
(PID.TID 0000.0001)  MDS_READ_RL_VEC: irec =  00000001   00066240
(PID.TID 0000.0001)  MDSREADVECTOR: opening file: tapelev3_3_the_main_loop_gt.it0000.001.001.data
(PID.TID 0000.0001)  MDS_READ_RL_VEC: irec =  00000001   00066240
(PID.TID 0000.0001)  MDSREADVECTOR: opening file: tapelev3_6_the_main_loop_gsnm1.it0000.001.001.data
(PID.TID 0000.0001)  MDS_READ_RL_VEC: irec =  00000001   00066240
(PID.TID 0000.0001)  MDSREADVECTOR: opening file: tapelev3_7_the_main_loop_gtnm1.it0000.001.001.data
(PID.TID 0000.0001)  MDS_READ_RL_VEC: irec =  00000001   00066240
(PID.TID 0000.0001)  MDSREADVECTOR: opening file: tapelev3_8_the_main_loop_gunm1.it0000.001.001.data
(PID.TID 0000.0001)  MDS_READ_RL_VEC: irec =  00000001   00066240
(PID.TID 0000.0001)  MDSREADVECTOR: opening file: tapelev3_9_the_main_loop_gvnm1.it0000.001.001.data
(PID.TID 0000.0001)  MDS_READ_RL_VEC: irec =  00000001   00066240
(PID.TID 0000.0001)  MDSREADVECTOR: opening file: tapelev3_10_the_main_loop_theta.it0000.001.001.data
(PID.TID 0000.0001)  MDS_READ_RL_VEC: irec =  00000001   00066240
(PID.TID 0000.0001)  MDSREADVECTOR: opening file: tapelev3_11_the_main_loop_salt.it0000.001.001.data
(PID.TID 0000.0001)  MDS_READ_RL_VEC: irec =  00000001   00066240
(PID.TID 0000.0001)  MDSREADVECTOR: opening file: tapelev3_12_the_main_loop_uvel.it0000.001.001.data
(PID.TID 0000.0001)  MDS_READ_RL_VEC: irec =  00000001   00066240
(PID.TID 0000.0001)  MDSREADVECTOR: opening file: tapelev3_13_the_main_loop_vvel.it0000.001.001.data
(PID.TID 0000.0001)  MDS_READ_RL_VEC: irec =  00000001   00066240
(PID.TID 0000.0001)  MDSREADVECTOR: opening file: tapelev3_14_the_main_loop_wvel.it0000.001.001.data
(PID.TID 0000.0001)  MDS_READ_RL_VEC: irec =  00000001   00066240
(PID.TID 0000.0001)  MDSREADVECTOR: opening file: tapelev3_15_the_main_loop_etan.it0000.001.001.data
(PID.TID 0000.0001)  MDS_READ_RL_VEC: irec =  00000001   00004416
(PID.TID 0000.0001)  MDSREADVECTOR: opening file: tapelev3_16_the_main_loop_totphihyd.it0000.001.001.data
(PID.TID 0000.0001)  MDS_READ_RL_VEC: irec =  00000001   00066240
(PID.TID 0000.0001)  MDSREADVECTOR: opening file: tapelev3_18_the_main_loop_surfaceforcingtice.it0000.001.001.data
(PID.TID 0000.0001)  MDS_READ_RL_VEC: irec =  00000001   00004416
(PID.TID 0000.0001)  MDSREADVECTOR: opening file: tapelev3_20_the_main_loop_etah.it0000.001.001.data
(PID.TID 0000.0001)  MDS_READ_RL_VEC: irec =  00000001   00004416
(PID.TID 0000.0001)  MDSREADVECTOR: opening file: tapelev3_21_the_main_loop_detahdt.it0000.001.001.data
(PID.TID 0000.0001)  MDS_READ_RL_VEC: irec =  00000001   00004416
(PID.TID 0000.0001)  MDSREADVECTOR: opening file: tapelev3_22_the_main_loop_pmepr.it0000.001.001.data
(PID.TID 0000.0001)  MDS_READ_RL_VEC: irec =  00000001   00004416
(PID.TID 0000.0001)  MDSREADVECTOR: opening file: tapelev3_23_the_main_loop_taux0.it0000.001.001.data
(PID.TID 0000.0001)  MDS_READ_RL_VEC: irec =  00000001   00004416
(PID.TID 0000.0001)  MDSREADVECTOR: opening file: tapelev3_24_the_main_loop_taux1.it0000.001.001.data
(PID.TID 0000.0001)  MDS_READ_RL_VEC: irec =  00000001   00004416
(PID.TID 0000.0001)  MDSREADVECTOR: opening file: tapelev3_25_the_main_loop_tauy0.it0000.001.001.data
(PID.TID 0000.0001)  MDS_READ_RL_VEC: irec =  00000001   00004416
(PID.TID 0000.0001)  MDSREADVECTOR: opening file: tapelev3_26_the_main_loop_tauy1.it0000.001.001.data
(PID.TID 0000.0001)  MDS_READ_RL_VEC: irec =  00000001   00004416
(PID.TID 0000.0001)  MDSREADVECTOR: opening file: tapelev3_27_the_main_loop_qnet0.it0000.001.001.data
(PID.TID 0000.0001)  MDS_READ_RL_VEC: irec =  00000001   00004416
(PID.TID 0000.0001)  MDSREADVECTOR: opening file: tapelev3_28_the_main_loop_qnet1.it0000.001.001.data
(PID.TID 0000.0001)  MDS_READ_RL_VEC: irec =  00000001   00004416
(PID.TID 0000.0001)  MDSREADVECTOR: opening file: tapelev3_29_the_main_loop_empmr0.it0000.001.001.data
(PID.TID 0000.0001)  MDS_READ_RL_VEC: irec =  00000001   00004416
(PID.TID 0000.0001)  MDSREADVECTOR: opening file: tapelev3_30_the_main_loop_empmr1.it0000.001.001.data
(PID.TID 0000.0001)  MDS_READ_RL_VEC: irec =  00000001   00004416
(PID.TID 0000.0001)  MDSREADVECTOR: opening file: tapelev3_31_the_main_loop_sst0.it0000.001.001.data
(PID.TID 0000.0001)  MDS_READ_RL_VEC: irec =  00000001   00004416
(PID.TID 0000.0001)  MDSREADVECTOR: opening file: tapelev3_32_the_main_loop_sst1.it0000.001.001.data
(PID.TID 0000.0001)  MDS_READ_RL_VEC: irec =  00000001   00004416
(PID.TID 0000.0001)  MDSREADVECTOR: opening file: tapelev3_33_the_main_loop_sss0.it0000.001.001.data
(PID.TID 0000.0001)  MDS_READ_RL_VEC: irec =  00000001   00004416
(PID.TID 0000.0001)  MDSREADVECTOR: opening file: tapelev3_34_the_main_loop_sss1.it0000.001.001.data
(PID.TID 0000.0001)  MDS_READ_RL_VEC: irec =  00000001   00004416
(PID.TID 0000.0001)  MDSREADVECTOR: opening file: tapelev3_35_the_main_loop_qsw0.it0000.001.001.data
(PID.TID 0000.0001)  MDS_READ_RL_VEC: irec =  00000001   00004416
(PID.TID 0000.0001)  MDSREADVECTOR: opening file: tapelev3_36_the_main_loop_qsw1.it0000.001.001.data
(PID.TID 0000.0001)  MDS_READ_RL_VEC: irec =  00000001   00004416
(PID.TID 0000.0001)  MDS_WRITE_RL_VEC: irec =  00000001   00066240
(PID.TID 0000.0001)  MDS_WRITE_RL_VEC: irec =  00000001   00066240
(PID.TID 0000.0001)  MDS_WRITE_RL_VEC: irec =  00000001   00066240
(PID.TID 0000.0001)  MDS_WRITE_RL_VEC: irec =  00000001   00066240
(PID.TID 0000.0001)  MDS_WRITE_RL_VEC: irec =  00000001   00066240
(PID.TID 0000.0001)  MDS_WRITE_RL_VEC: irec =  00000001   00066240
(PID.TID 0000.0001)  MDS_WRITE_RL_VEC: irec =  00000001   00066240
(PID.TID 0000.0001)  MDS_WRITE_RL_VEC: irec =  00000001   00066240
(PID.TID 0000.0001)  MDS_WRITE_RL_VEC: irec =  00000001   00066240
(PID.TID 0000.0001)  MDS_WRITE_RL_VEC: irec =  00000001   00066240
(PID.TID 0000.0001)  MDS_WRITE_RL_VEC: irec =  00000001   00066240
(PID.TID 0000.0001)  MDS_WRITE_RL_VEC: irec =  00000001   00004416
(PID.TID 0000.0001)  MDS_WRITE_RL_VEC: irec =  00000001   00066240
(PID.TID 0000.0001)  MDS_WRITE_RL_VEC: irec =  00000001   00004416
(PID.TID 0000.0001)  MDS_WRITE_RL_VEC: irec =  00000001   00004416
(PID.TID 0000.0001)  MDS_WRITE_RL_VEC: irec =  00000001   00004416
(PID.TID 0000.0001)  MDS_WRITE_RL_VEC: irec =  00000001   00004416
(PID.TID 0000.0001)  MDS_WRITE_RL_VEC: irec =  00000001   00004416
(PID.TID 0000.0001)  MDS_WRITE_RL_VEC: irec =  00000001   00004416
(PID.TID 0000.0001)  MDS_WRITE_RL_VEC: irec =  00000001   00004416
(PID.TID 0000.0001)  MDS_WRITE_RL_VEC: irec =  00000001   00004416
(PID.TID 0000.0001)  MDS_WRITE_RL_VEC: irec =  00000001   00004416
(PID.TID 0000.0001)  MDS_WRITE_RL_VEC: irec =  00000001   00004416
(PID.TID 0000.0001)  MDS_WRITE_RL_VEC: irec =  00000001   00004416
(PID.TID 0000.0001)  MDS_WRITE_RL_VEC: irec =  00000001   00004416
(PID.TID 0000.0001)  MDS_WRITE_RL_VEC: irec =  00000001   00004416
(PID.TID 0000.0001)  MDS_WRITE_RL_VEC: irec =  00000001   00004416
(PID.TID 0000.0001)  MDS_WRITE_RL_VEC: irec =  00000001   00004416
(PID.TID 0000.0001)  MDS_WRITE_RL_VEC: irec =  00000001   00004416
(PID.TID 0000.0001)  MDS_WRITE_RL_VEC: irec =  00000001   00004416
(PID.TID 0000.0001)  MDS_WRITE_RL_VEC: irec =  00000001   00004416
 S/R EXTERNAL_FIELDS_LOAD: Reading new data  0. 0
(PID.TID 0000.0001)  MDSREADFIELD: opening global file: trenberth_taux.bin
(PID.TID 0000.0001)  MDSREADFIELD: opening global file: trenberth_taux.bin
(PID.TID 0000.0001)  MDSREADFIELD: opening global file: trenberth_tauy.bin
(PID.TID 0000.0001)  MDSREADFIELD: opening global file: trenberth_tauy.bin
(PID.TID 0000.0001)  MDSREADFIELD: opening global file: ncep_qnet.bin
(PID.TID 0000.0001)  MDSREADFIELD: opening global file: ncep_qnet.bin
(PID.TID 0000.0001)  MDSREADFIELD: opening global file: lev_sst.bin
(PID.TID 0000.0001)  MDSREADFIELD: opening global file: lev_sst.bin
(PID.TID 0000.0001)  MDSREADFIELD: opening global file: lev_sss.bin
(PID.TID 0000.0001)  MDSREADFIELD: opening global file: lev_sss.bin
time,SST,SSS,fu,fv,Q,E-P,i0,i1,a,b =   0.0000E+00  5.3151E-02  3.4364E+01 -4.0500E-02 -6.3753E-02  2.6510E+02  0.0000E+00    12     1  5.0000E-01  5.0000E-01
time,fu0,fu1,fu =   0.0000E+00 -4.5368E-02 -3.5633E-02 -4.0500E-02  5.0000E-01  5.0000E-01
(PID.TID 0000.0001)  MDSREADFIELD: opening file: xx_tauu.0000000000.001.001.data
(PID.TID 0000.0001)  MDSREADFIELD: opening file: xx_tauv.0000000000.001.001.data
(PID.TID 0000.0001)  MDSREADFIELD: opening file: xx_sflux.0000000000.001.001.data
(PID.TID 0000.0001)  MDSREADFIELD: opening file: xx_hflux.0000000000.001.001.data
 cg2d: Sum(rhs),rhsMax =  -5.55111512312578E-17  2.51126027825716E+00
(PID.TID 0000.0001)                    cg2d_init_res =    6.25921682922720E+00
(PID.TID 0000.0001)                       cg2d_iters =    26
(PID.TID 0000.0001)                         cg2d_res =    4.96600264521541E-14
(PID.TID 0000.0001) // =======================================================
(PID.TID 0000.0001) // Begin MONITOR dynamic field statistics
(PID.TID 0000.0001) // =======================================================
(PID.TID 0000.0001) %MON time_tsnumber                =                     1
(PID.TID 0000.0001) %MON time_secondsf                =   4.3200000000000E+04
(PID.TID 0000.0001) %MON dynstat_eta_max              =   1.7542736336611E-01
(PID.TID 0000.0001) %MON dynstat_eta_min              =  -1.1671969011691E-01
(PID.TID 0000.0001) %MON dynstat_eta_mean             =   2.4292464894384E-18
(PID.TID 0000.0001) %MON dynstat_eta_sd               =   2.6179446472584E-02
(PID.TID 0000.0001) %MON dynstat_eta_del2             =   1.1613846703601E-02
(PID.TID 0000.0001) %MON dynstat_uvel_max             =   8.0529522933638E-03
(PID.TID 0000.0001) %MON dynstat_uvel_min             =  -7.6333376275251E-03
(PID.TID 0000.0001) %MON dynstat_uvel_mean            =  -1.5724926029343E-04
(PID.TID 0000.0001) %MON dynstat_uvel_sd              =   1.2330585789934E-03
(PID.TID 0000.0001) %MON dynstat_uvel_del2            =   4.1962602040880E-04
(PID.TID 0000.0001) %MON dynstat_vvel_max             =   1.8131688035041E-02
(PID.TID 0000.0001) %MON dynstat_vvel_min             =  -1.1104627631651E-02
(PID.TID 0000.0001) %MON dynstat_vvel_mean            =   9.0141408382241E-04
(PID.TID 0000.0001) %MON dynstat_vvel_sd              =   3.3812266152410E-03
(PID.TID 0000.0001) %MON dynstat_vvel_del2            =   5.2106641127852E-04
(PID.TID 0000.0001) %MON dynstat_wvel_max             =   1.5731556153468E-04
(PID.TID 0000.0001) %MON dynstat_wvel_min             =  -1.0461247926497E-04
(PID.TID 0000.0001) %MON dynstat_wvel_mean            =   1.3025862825874E-22
(PID.TID 0000.0001) %MON dynstat_wvel_sd              =   1.6753162012021E-05
(PID.TID 0000.0001) %MON dynstat_wvel_del2            =   8.7872728255397E-06
(PID.TID 0000.0001) %MON dynstat_theta_max            =   2.9714151773427E+01
(PID.TID 0000.0001) %MON dynstat_theta_min            =  -1.9006688327720E+00
(PID.TID 0000.0001) %MON dynstat_theta_mean           =   3.6192176620433E+00
(PID.TID 0000.0001) %MON dynstat_theta_sd             =   4.4160464019401E+00
(PID.TID 0000.0001) %MON dynstat_theta_del2           =   1.5011458051278E-01
(PID.TID 0000.0001) %MON dynstat_salt_max             =   3.7470483222390E+01
(PID.TID 0000.0001) %MON dynstat_salt_min             =   2.9754996047611E+01
(PID.TID 0000.0001) %MON dynstat_salt_mean            =   3.4717966947509E+01
(PID.TID 0000.0001) %MON dynstat_salt_sd              =   2.9615546782177E-01
(PID.TID 0000.0001) %MON dynstat_salt_del2            =   2.6383451191221E-02
(PID.TID 0000.0001) %MON advcfl_uvel_max              =   2.7847836032001E-03
(PID.TID 0000.0001) %MON advcfl_vvel_max              =   1.7613480939469E-03
(PID.TID 0000.0001) %MON advcfl_wvel_max              =   2.5261540324720E-01
(PID.TID 0000.0001) %MON advcfl_W_hf_max              =   2.5633166678463E-01
(PID.TID 0000.0001) %MON pe_b_mean                    =   8.7700510162598E-07
(PID.TID 0000.0001) %MON ke_max                       =   1.2189599970725E-04
(PID.TID 0000.0001) %MON ke_mean                      =   6.1994153670140E-06
(PID.TID 0000.0001) %MON ke_vol                       =   1.3226782436723E+18
(PID.TID 0000.0001) %MON vort_r_min                   =  -6.1330304033498E-08
(PID.TID 0000.0001) %MON vort_r_max                   =   6.1580160380246E-08
(PID.TID 0000.0001) %MON vort_a_mean                  =  -2.5205769360242E-05
(PID.TID 0000.0001) %MON vort_a_sd                    =   7.3403259512185E-05
(PID.TID 0000.0001) %MON vort_p_mean                  =  -3.1758669515642E-05
(PID.TID 0000.0001) %MON vort_p_sd                    =   1.3126622607324E-04
(PID.TID 0000.0001) %MON surfExpan_theta_mean         =   4.5922979108061E-05
(PID.TID 0000.0001) %MON surfExpan_salt_mean          =   3.4898922523556E-06
(PID.TID 0000.0001) // =======================================================
(PID.TID 0000.0001) // End MONITOR dynamic field statistics
(PID.TID 0000.0001) // =======================================================
time,SST,SSS,fu,fv,Q,E-P,i0,i1,a,b =   4.3200E+04  8.3327E-02  3.4375E+01 -4.0338E-02 -6.3536E-02  2.6512E+02  0.0000E+00    12     1  5.1667E-01  4.8333E-01
time,fu0,fu1,fu =   4.3200E+04 -4.5368E-02 -3.5633E-02 -4.0338E-02  5.1667E-01  4.8333E-01
 cg2d: Sum(rhs),rhsMax =   5.09800535120064E-14  4.88048471044203E+00
(PID.TID 0000.0001)                    cg2d_init_res =    3.38567973212929E+00
(PID.TID 0000.0001)                       cg2d_iters =    26
(PID.TID 0000.0001)                         cg2d_res =    3.27664080606883E-14
(PID.TID 0000.0001) // =======================================================
(PID.TID 0000.0001) // Begin MONITOR dynamic field statistics
(PID.TID 0000.0001) // =======================================================
(PID.TID 0000.0001) %MON time_tsnumber                =                     2
(PID.TID 0000.0001) %MON time_secondsf                =   8.6400000000000E+04
(PID.TID 0000.0001) %MON dynstat_eta_max              =   3.6642075205993E-01
(PID.TID 0000.0001) %MON dynstat_eta_min              =  -2.5542812926271E-01
(PID.TID 0000.0001) %MON dynstat_eta_mean             =   1.0766951366187E-17
(PID.TID 0000.0001) %MON dynstat_eta_sd               =   5.9802419287232E-02
(PID.TID 0000.0001) %MON dynstat_eta_del2             =   2.2181090018688E-02
(PID.TID 0000.0001) %MON dynstat_uvel_max             =   1.8742617413914E-02
(PID.TID 0000.0001) %MON dynstat_uvel_min             =  -1.7008757434475E-02
(PID.TID 0000.0001) %MON dynstat_uvel_mean            =  -6.1812261640605E-04
(PID.TID 0000.0001) %MON dynstat_uvel_sd              =   2.0365422453265E-03
(PID.TID 0000.0001) %MON dynstat_uvel_del2            =   7.7147800201479E-04
(PID.TID 0000.0001) %MON dynstat_vvel_max             =   3.3070086704749E-02
(PID.TID 0000.0001) %MON dynstat_vvel_min             =  -1.7823710906559E-02
(PID.TID 0000.0001) %MON dynstat_vvel_mean            =   1.7749222766967E-03
(PID.TID 0000.0001) %MON dynstat_vvel_sd              =   6.2103816590510E-03
(PID.TID 0000.0001) %MON dynstat_vvel_del2            =   9.3438723672966E-04
(PID.TID 0000.0001) %MON dynstat_wvel_max             =   2.0185420699784E-04
(PID.TID 0000.0001) %MON dynstat_wvel_min             =  -1.4619082137608E-04
(PID.TID 0000.0001) %MON dynstat_wvel_mean            =   3.7270646700022E-22
(PID.TID 0000.0001) %MON dynstat_wvel_sd              =   2.3946387282383E-05
(PID.TID 0000.0001) %MON dynstat_wvel_del2            =   9.7964861655408E-06
(PID.TID 0000.0001) %MON dynstat_theta_max            =   2.9695250203754E+01
(PID.TID 0000.0001) %MON dynstat_theta_min            =  -1.9046704676167E+00
(PID.TID 0000.0001) %MON dynstat_theta_mean           =   3.6180451604343E+00
(PID.TID 0000.0001) %MON dynstat_theta_sd             =   4.4133958582919E+00
(PID.TID 0000.0001) %MON dynstat_theta_del2           =   1.4858785009372E-01
(PID.TID 0000.0001) %MON dynstat_salt_max             =   3.7465922104459E+01
(PID.TID 0000.0001) %MON dynstat_salt_min             =   2.9758319089739E+01
(PID.TID 0000.0001) %MON dynstat_salt_mean            =   3.4717870437879E+01
(PID.TID 0000.0001) %MON dynstat_salt_sd              =   2.9608252734124E-01
(PID.TID 0000.0001) %MON dynstat_salt_del2            =   2.6460099483100E-02
(PID.TID 0000.0001) %MON advcfl_uvel_max              =   5.1989943937369E-03
(PID.TID 0000.0001) %MON advcfl_vvel_max              =   3.2124937331537E-03
(PID.TID 0000.0001) %MON advcfl_wvel_max              =   2.7503047971909E-01
(PID.TID 0000.0001) %MON advcfl_W_hf_max              =   2.8566390214195E-01
(PID.TID 0000.0001) %MON pe_b_mean                    =   4.5763444717600E-06
(PID.TID 0000.0001) %MON ke_max                       =   4.0262905102485E-04
(PID.TID 0000.0001) %MON ke_mean                      =   2.0787429875731E-05
(PID.TID 0000.0001) %MON ke_vol                       =   1.3226782436723E+18
(PID.TID 0000.0001) %MON vort_r_min                   =  -1.0591157787462E-07
(PID.TID 0000.0001) %MON vort_r_max                   =   1.2116719173739E-07
(PID.TID 0000.0001) %MON vort_a_mean                  =  -2.5205769260570E-05
(PID.TID 0000.0001) %MON vort_a_sd                    =   7.3403162844140E-05
(PID.TID 0000.0001) %MON vort_p_mean                  =  -3.1758669390057E-05
(PID.TID 0000.0001) %MON vort_p_sd                    =   1.3126606566404E-04
(PID.TID 0000.0001) %MON surfExpan_theta_mean         =   8.3423173084892E-05
(PID.TID 0000.0001) %MON surfExpan_salt_mean          =   6.6892887366942E-06
(PID.TID 0000.0001) // =======================================================
(PID.TID 0000.0001) // End MONITOR dynamic field statistics
(PID.TID 0000.0001) // =======================================================
time,SST,SSS,fu,fv,Q,E-P,i0,i1,a,b =   8.6400E+04  1.1350E-01  3.4387E+01 -4.0176E-02 -6.3320E-02  2.6514E+02  0.0000E+00    12     1  5.3333E-01  4.6667E-01
time,fu0,fu1,fu =   8.6400E+04 -4.5368E-02 -3.5633E-02 -4.0176E-02  5.3333E-01  4.6667E-01
 cg2d: Sum(rhs),rhsMax =  -1.17406084854110E-14  6.23803641968524E+00
(PID.TID 0000.0001)                    cg2d_init_res =    2.21964830975065E+00
(PID.TID 0000.0001)                       cg2d_iters =    26
(PID.TID 0000.0001)                         cg2d_res =    2.85735424033974E-14
(PID.TID 0000.0001) // =======================================================
(PID.TID 0000.0001) // Begin MONITOR dynamic field statistics
(PID.TID 0000.0001) // =======================================================
(PID.TID 0000.0001) %MON time_tsnumber                =                     3
(PID.TID 0000.0001) %MON time_secondsf                =   1.2960000000000E+05
(PID.TID 0000.0001) %MON dynstat_eta_max              =   5.0447743753974E-01
(PID.TID 0000.0001) %MON dynstat_eta_min              =  -3.8122928103702E-01
(PID.TID 0000.0001) %MON dynstat_eta_mean             =   2.6997847503064E-18
(PID.TID 0000.0001) %MON dynstat_eta_sd               =   9.2514851165643E-02
(PID.TID 0000.0001) %MON dynstat_eta_del2             =   2.7904917349760E-02
(PID.TID 0000.0001) %MON dynstat_uvel_max             =   3.0748714608840E-02
(PID.TID 0000.0001) %MON dynstat_uvel_min             =  -2.9887612427394E-02
(PID.TID 0000.0001) %MON dynstat_uvel_mean            =  -1.2347563610832E-03
(PID.TID 0000.0001) %MON dynstat_uvel_sd              =   2.8304408252463E-03
(PID.TID 0000.0001) %MON dynstat_uvel_del2            =   1.1349445165320E-03
(PID.TID 0000.0001) %MON dynstat_vvel_max             =   4.3827495826059E-02
(PID.TID 0000.0001) %MON dynstat_vvel_min             =  -2.5545918430171E-02
(PID.TID 0000.0001) %MON dynstat_vvel_mean            =   2.5728333586341E-03
(PID.TID 0000.0001) %MON dynstat_vvel_sd              =   8.5401776147215E-03
(PID.TID 0000.0001) %MON dynstat_vvel_del2            =   1.3456991815164E-03
(PID.TID 0000.0001) %MON dynstat_wvel_max             =   1.9966320236139E-04
(PID.TID 0000.0001) %MON dynstat_wvel_min             =  -1.7215302213926E-04
(PID.TID 0000.0001) %MON dynstat_wvel_mean            =   1.3695584743135E-21
(PID.TID 0000.0001) %MON dynstat_wvel_sd              =   2.6852357530402E-05
(PID.TID 0000.0001) %MON dynstat_wvel_del2            =   8.6463595917576E-06
(PID.TID 0000.0001) %MON dynstat_theta_max            =   2.9693876913640E+01
(PID.TID 0000.0001) %MON dynstat_theta_min            =  -1.9165848424520E+00
(PID.TID 0000.0001) %MON dynstat_theta_mean           =   3.6166050297387E+00
(PID.TID 0000.0001) %MON dynstat_theta_sd             =   4.4102951129677E+00
(PID.TID 0000.0001) %MON dynstat_theta_del2           =   1.4734415380154E-01
(PID.TID 0000.0001) %MON dynstat_salt_max             =   3.7461480469125E+01
(PID.TID 0000.0001) %MON dynstat_salt_min             =   2.9762089295090E+01
(PID.TID 0000.0001) %MON dynstat_salt_mean            =   3.4717748756376E+01
(PID.TID 0000.0001) %MON dynstat_salt_sd              =   2.9607393342966E-01
(PID.TID 0000.0001) %MON dynstat_salt_del2            =   2.6366190050189E-02
(PID.TID 0000.0001) %MON advcfl_uvel_max              =   6.3252572287560E-03
(PID.TID 0000.0001) %MON advcfl_vvel_max              =   4.2574897652390E-03
(PID.TID 0000.0001) %MON advcfl_wvel_max              =   2.0873391319125E-01
(PID.TID 0000.0001) %MON advcfl_W_hf_max              =   2.1768957936022E-01
(PID.TID 0000.0001) %MON pe_b_mean                    =   1.0952269179714E-05
(PID.TID 0000.0001) %MON ke_max                       =   7.4676338471534E-04
(PID.TID 0000.0001) %MON ke_mean                      =   4.0047683146680E-05
(PID.TID 0000.0001) %MON ke_vol                       =   1.3226782436723E+18
(PID.TID 0000.0001) %MON vort_r_min                   =  -1.5301597332276E-07
(PID.TID 0000.0001) %MON vort_r_max                   =   1.7605569372901E-07
(PID.TID 0000.0001) %MON vort_a_mean                  =  -2.5205769243887E-05
(PID.TID 0000.0001) %MON vort_a_sd                    =   7.3403039694991E-05
(PID.TID 0000.0001) %MON vort_p_mean                  =  -3.1758669369038E-05
(PID.TID 0000.0001) %MON vort_p_sd                    =   1.3126579822803E-04
(PID.TID 0000.0001) %MON surfExpan_theta_mean         =   1.1255486781963E-04
(PID.TID 0000.0001) %MON surfExpan_salt_mean          =   9.2738974730469E-06
(PID.TID 0000.0001) // =======================================================
(PID.TID 0000.0001) // End MONITOR dynamic field statistics
(PID.TID 0000.0001) // =======================================================
time,SST,SSS,fu,fv,Q,E-P,i0,i1,a,b =   1.2960E+05  1.4368E-01  3.4399E+01 -4.0014E-02 -6.3103E-02  2.6516E+02  0.0000E+00    12     1  5.5000E-01  4.5000E-01
time,fu0,fu1,fu =   1.2960E+05 -4.5368E-02 -3.5633E-02 -4.0014E-02  5.5000E-01  4.5000E-01
 cg2d: Sum(rhs),rhsMax =   4.60222138176647E-14  6.79014299228627E+00
(PID.TID 0000.0001)                    cg2d_init_res =    1.84397149847904E+00
(PID.TID 0000.0001)                       cg2d_iters =    26
(PID.TID 0000.0001)                         cg2d_res =    2.55763781723462E-14
(PID.TID 0000.0001) // =======================================================
(PID.TID 0000.0001) // Begin MONITOR dynamic field statistics
(PID.TID 0000.0001) // =======================================================
(PID.TID 0000.0001) %MON time_tsnumber                =                     4
(PID.TID 0000.0001) %MON time_secondsf                =   1.7280000000000E+05
(PID.TID 0000.0001) %MON dynstat_eta_max              =   5.8744280224194E-01
(PID.TID 0000.0001) %MON dynstat_eta_min              =  -4.9922435149372E-01
(PID.TID 0000.0001) %MON dynstat_eta_mean             =   1.7301389504597E-17
(PID.TID 0000.0001) %MON dynstat_eta_sd               =   1.2282110482491E-01
(PID.TID 0000.0001) %MON dynstat_eta_del2             =   2.9664533615295E-02
(PID.TID 0000.0001) %MON dynstat_uvel_max             =   4.3275845499344E-02
(PID.TID 0000.0001) %MON dynstat_uvel_min             =  -4.2470479735484E-02
(PID.TID 0000.0001) %MON dynstat_uvel_mean            =  -1.9743371436809E-03
(PID.TID 0000.0001) %MON dynstat_uvel_sd              =   3.7660682797491E-03
(PID.TID 0000.0001) %MON dynstat_uvel_del2            =   1.4942872230642E-03
(PID.TID 0000.0001) %MON dynstat_vvel_max             =   5.0865239646011E-02
(PID.TID 0000.0001) %MON dynstat_vvel_min             =  -3.7807952781044E-02
(PID.TID 0000.0001) %MON dynstat_vvel_mean            =   3.2826064600717E-03
(PID.TID 0000.0001) %MON dynstat_vvel_sd              =   1.0483838835754E-02
(PID.TID 0000.0001) %MON dynstat_vvel_del2            =   1.7640692186993E-03
(PID.TID 0000.0001) %MON dynstat_wvel_max             =   1.9909629511443E-04
(PID.TID 0000.0001) %MON dynstat_wvel_min             =  -2.0243042163513E-04
(PID.TID 0000.0001) %MON dynstat_wvel_mean            =  -5.8501913135670E-22
(PID.TID 0000.0001) %MON dynstat_wvel_sd              =   2.8700892737841E-05
(PID.TID 0000.0001) %MON dynstat_wvel_del2            =   8.2544056448438E-06
(PID.TID 0000.0001) %MON dynstat_theta_max            =   2.9706174523039E+01
(PID.TID 0000.0001) %MON dynstat_theta_min            =  -1.9336756604094E+00
(PID.TID 0000.0001) %MON dynstat_theta_mean           =   3.6149643369732E+00
(PID.TID 0000.0001) %MON dynstat_theta_sd             =   4.4067800865102E+00
(PID.TID 0000.0001) %MON dynstat_theta_del2           =   1.4653336001984E-01
(PID.TID 0000.0001) %MON dynstat_salt_max             =   3.7457127798715E+01
(PID.TID 0000.0001) %MON dynstat_salt_min             =   2.9766149544949E+01
(PID.TID 0000.0001) %MON dynstat_salt_mean            =   3.4717609911393E+01
(PID.TID 0000.0001) %MON dynstat_salt_sd              =   2.9605659689270E-01
(PID.TID 0000.0001) %MON dynstat_salt_del2            =   2.6253513702854E-02
(PID.TID 0000.0001) %MON advcfl_uvel_max              =   8.9567892640406E-03
(PID.TID 0000.0001) %MON advcfl_vvel_max              =   4.9411501414270E-03
(PID.TID 0000.0001) %MON advcfl_wvel_max              =   2.3259770991650E-01
(PID.TID 0000.0001) %MON advcfl_W_hf_max              =   2.3267734139935E-01
(PID.TID 0000.0001) %MON pe_b_mean                    =   1.9303106180450E-05
(PID.TID 0000.0001) %MON ke_max                       =   1.1227686635806E-03
(PID.TID 0000.0001) %MON ke_mean                      =   6.2396005914680E-05
(PID.TID 0000.0001) %MON ke_vol                       =   1.3226782436723E+18
(PID.TID 0000.0001) %MON vort_r_min                   =  -2.0273078629522E-07
(PID.TID 0000.0001) %MON vort_r_max                   =   2.2565138482576E-07
(PID.TID 0000.0001) %MON vort_a_mean                  =  -2.5205769220858E-05
(PID.TID 0000.0001) %MON vort_a_sd                    =   7.3402896496066E-05
(PID.TID 0000.0001) %MON vort_p_mean                  =  -3.1758669340022E-05
(PID.TID 0000.0001) %MON vort_p_sd                    =   1.3126543256098E-04
(PID.TID 0000.0001) %MON surfExpan_theta_mean         =   1.3465266804450E-04
(PID.TID 0000.0001) %MON surfExpan_salt_mean          =   1.1193488633964E-05
(PID.TID 0000.0001) // =======================================================
(PID.TID 0000.0001) // End MONITOR dynamic field statistics
(PID.TID 0000.0001) // =======================================================
time,SST,SSS,fu,fv,Q,E-P,i0,i1,a,b =   1.7280E+05  1.7385E-01  3.4410E+01 -3.9851E-02 -6.2886E-02  2.6519E+02  0.0000E+00    12     1  5.6667E-01  4.3333E-01
time,fu0,fu1,fu =   1.7280E+05 -4.5368E-02 -3.5633E-02 -3.9851E-02  5.6667E-01  4.3333E-01
 cg2d: Sum(rhs),rhsMax =  -6.82023881815041E-14  6.92874107573634E+00
(PID.TID 0000.0001)                    cg2d_init_res =    1.75169689873266E+00
(PID.TID 0000.0001)                       cg2d_iters =    26
(PID.TID 0000.0001)                         cg2d_res =    2.59803641655544E-14
(PID.TID 0000.0001) // =======================================================
(PID.TID 0000.0001) // Begin MONITOR dynamic field statistics
(PID.TID 0000.0001) // =======================================================
(PID.TID 0000.0001) %MON time_tsnumber                =                     5
(PID.TID 0000.0001) %MON time_secondsf                =   2.1600000000000E+05
(PID.TID 0000.0001) %MON dynstat_eta_max              =   6.3271088691646E-01
(PID.TID 0000.0001) %MON dynstat_eta_min              =  -5.7992542420118E-01
(PID.TID 0000.0001) %MON dynstat_eta_mean             =  -2.3128301874222E-17
(PID.TID 0000.0001) %MON dynstat_eta_sd               =   1.5134273733701E-01
(PID.TID 0000.0001) %MON dynstat_eta_del2             =   2.9337520927988E-02
(PID.TID 0000.0001) %MON dynstat_uvel_max             =   5.5843085399552E-02
(PID.TID 0000.0001) %MON dynstat_uvel_min             =  -5.3444186272245E-02
(PID.TID 0000.0001) %MON dynstat_uvel_mean            =  -2.8074348506211E-03
(PID.TID 0000.0001) %MON dynstat_uvel_sd              =   4.8414578887370E-03
(PID.TID 0000.0001) %MON dynstat_uvel_del2            =   1.8312469199494E-03
(PID.TID 0000.0001) %MON dynstat_vvel_max             =   5.7021703108535E-02
(PID.TID 0000.0001) %MON dynstat_vvel_min             =  -4.9872134635055E-02
(PID.TID 0000.0001) %MON dynstat_vvel_mean            =   3.8899428148229E-03
(PID.TID 0000.0001) %MON dynstat_vvel_sd              =   1.2085737989215E-02
(PID.TID 0000.0001) %MON dynstat_vvel_del2            =   2.1605252922447E-03
(PID.TID 0000.0001) %MON dynstat_wvel_max             =   2.2883634006162E-04
(PID.TID 0000.0001) %MON dynstat_wvel_min             =  -2.3869685302406E-04
(PID.TID 0000.0001) %MON dynstat_wvel_mean            =  -1.2104248360687E-21
(PID.TID 0000.0001) %MON dynstat_wvel_sd              =   3.0511636922341E-05
(PID.TID 0000.0001) %MON dynstat_wvel_del2            =   8.9710499558262E-06
(PID.TID 0000.0001) %MON dynstat_theta_max            =   2.9720537578616E+01
(PID.TID 0000.0001) %MON dynstat_theta_min            =  -1.9541377379803E+00
(PID.TID 0000.0001) %MON dynstat_theta_mean           =   3.6131851876468E+00
(PID.TID 0000.0001) %MON dynstat_theta_sd             =   4.4029374434033E+00
(PID.TID 0000.0001) %MON dynstat_theta_del2           =   1.4585436068036E-01
(PID.TID 0000.0001) %MON dynstat_salt_max             =   3.7452892733702E+01
(PID.TID 0000.0001) %MON dynstat_salt_min             =   2.9770341301067E+01
(PID.TID 0000.0001) %MON dynstat_salt_mean            =   3.4717460594616E+01
(PID.TID 0000.0001) %MON dynstat_salt_sd              =   2.9603661181827E-01
(PID.TID 0000.0001) %MON dynstat_salt_del2            =   2.6165231738978E-02
(PID.TID 0000.0001) %MON advcfl_uvel_max              =   1.1746279775440E-02
(PID.TID 0000.0001) %MON advcfl_vvel_max              =   5.5392011979096E-03
(PID.TID 0000.0001) %MON advcfl_wvel_max              =   2.4450384445045E-01
(PID.TID 0000.0001) %MON advcfl_W_hf_max              =   2.4787864229426E-01
(PID.TID 0000.0001) %MON pe_b_mean                    =   2.9309227352278E-05
(PID.TID 0000.0001) %MON ke_max                       =   1.7055394127414E-03
(PID.TID 0000.0001) %MON ke_mean                      =   8.6598062031313E-05
(PID.TID 0000.0001) %MON ke_vol                       =   1.3226782436723E+18
(PID.TID 0000.0001) %MON vort_r_min                   =  -2.4767825566004E-07
(PID.TID 0000.0001) %MON vort_r_max                   =   2.6903270038204E-07
(PID.TID 0000.0001) %MON vort_a_mean                  =  -2.5205769190759E-05
(PID.TID 0000.0001) %MON vort_a_sd                    =   7.3402738153696E-05
(PID.TID 0000.0001) %MON vort_p_mean                  =  -3.1758669302097E-05
(PID.TID 0000.0001) %MON vort_p_sd                    =   1.3126497682573E-04
(PID.TID 0000.0001) %MON surfExpan_theta_mean         =   1.5065596420319E-04
(PID.TID 0000.0001) %MON surfExpan_salt_mean          =   1.2494062820392E-05
(PID.TID 0000.0001) // =======================================================
(PID.TID 0000.0001) // End MONITOR dynamic field statistics
(PID.TID 0000.0001) // =======================================================
time,SST,SSS,fu,fv,Q,E-P,i0,i1,a,b =   2.1600E+05  2.0403E-01  3.4422E+01 -3.9689E-02 -6.2670E-02  2.6521E+02  0.0000E+00    12     1  5.8333E-01  4.1667E-01
time,fu0,fu1,fu =   2.1600E+05 -4.5368E-02 -3.5633E-02 -3.9689E-02  5.8333E-01  4.1667E-01
 cg2d: Sum(rhs),rhsMax =  -6.17995238316738E-14  6.89395558172306E+00
(PID.TID 0000.0001)                    cg2d_init_res =    1.71510087440367E+00
(PID.TID 0000.0001)                       cg2d_iters =    26
(PID.TID 0000.0001)                         cg2d_res =    2.74380042537324E-14
(PID.TID 0000.0001) // =======================================================
(PID.TID 0000.0001) // Begin MONITOR dynamic field statistics
(PID.TID 0000.0001) // =======================================================
(PID.TID 0000.0001) %MON time_tsnumber                =                     6
(PID.TID 0000.0001) %MON time_secondsf                =   2.5920000000000E+05
(PID.TID 0000.0001) %MON dynstat_eta_max              =   7.1959482660992E-01
(PID.TID 0000.0001) %MON dynstat_eta_min              =  -6.4368137979645E-01
(PID.TID 0000.0001) %MON dynstat_eta_mean             =  -2.9883613864140E-17
(PID.TID 0000.0001) %MON dynstat_eta_sd               =   1.7871417582711E-01
(PID.TID 0000.0001) %MON dynstat_eta_del2             =   2.8270516956560E-02
(PID.TID 0000.0001) %MON dynstat_uvel_max             =   6.8176134256858E-02
(PID.TID 0000.0001) %MON dynstat_uvel_min             =  -6.2618554241697E-02
(PID.TID 0000.0001) %MON dynstat_uvel_mean            =  -3.7032814173587E-03
(PID.TID 0000.0001) %MON dynstat_uvel_sd              =   6.0227450388555E-03
(PID.TID 0000.0001) %MON dynstat_uvel_del2            =   2.1457379078955E-03
(PID.TID 0000.0001) %MON dynstat_vvel_max             =   6.8809080029910E-02
(PID.TID 0000.0001) %MON dynstat_vvel_min             =  -6.1181399430826E-02
(PID.TID 0000.0001) %MON dynstat_vvel_mean            =   4.3839317751562E-03
(PID.TID 0000.0001) %MON dynstat_vvel_sd              =   1.3369761485057E-02
(PID.TID 0000.0001) %MON dynstat_vvel_del2            =   2.5217186079608E-03
(PID.TID 0000.0001) %MON dynstat_wvel_max             =   2.5627514039465E-04
(PID.TID 0000.0001) %MON dynstat_wvel_min             =  -2.7194470551627E-04
(PID.TID 0000.0001) %MON dynstat_wvel_mean            =  -1.1682718228601E-21
(PID.TID 0000.0001) %MON dynstat_wvel_sd              =   3.2463262892734E-05
(PID.TID 0000.0001) %MON dynstat_wvel_del2            =   1.0209422212276E-05
(PID.TID 0000.0001) %MON dynstat_theta_max            =   2.9726455071511E+01
(PID.TID 0000.0001) %MON dynstat_theta_min            =  -1.9756921638916E+00
(PID.TID 0000.0001) %MON dynstat_theta_mean           =   3.6113235323162E+00
(PID.TID 0000.0001) %MON dynstat_theta_sd             =   4.3988501742679E+00
(PID.TID 0000.0001) %MON dynstat_theta_del2           =   1.4510139555316E-01
(PID.TID 0000.0001) %MON dynstat_salt_max             =   3.7449510091548E+01
(PID.TID 0000.0001) %MON dynstat_salt_min             =   2.9774513629707E+01
(PID.TID 0000.0001) %MON dynstat_salt_mean            =   3.4717306355506E+01
(PID.TID 0000.0001) %MON dynstat_salt_sd              =   2.9601367291548E-01
(PID.TID 0000.0001) %MON dynstat_salt_del2            =   2.6080200272190E-02
(PID.TID 0000.0001) %MON advcfl_uvel_max              =   1.5051312200622E-02
(PID.TID 0000.0001) %MON advcfl_vvel_max              =   6.6842503424225E-03
(PID.TID 0000.0001) %MON advcfl_wvel_max              =   2.1502942959283E-01
(PID.TID 0000.0001) %MON advcfl_W_hf_max              =   2.2312935941223E-01
(PID.TID 0000.0001) %MON pe_b_mean                    =   4.0869488791631E-05
(PID.TID 0000.0001) %MON ke_max                       =   2.4665141762373E-03
(PID.TID 0000.0001) %MON ke_mean                      =   1.1158732574306E-04
(PID.TID 0000.0001) %MON ke_vol                       =   1.3226782436723E+18
(PID.TID 0000.0001) %MON vort_r_min                   =  -2.8619411441847E-07
(PID.TID 0000.0001) %MON vort_r_max                   =   3.0627229398579E-07
(PID.TID 0000.0001) %MON vort_a_mean                  =  -2.5205769176228E-05
(PID.TID 0000.0001) %MON vort_a_sd                    =   7.3402569514181E-05
(PID.TID 0000.0001) %MON vort_p_mean                  =  -3.1758669283789E-05
(PID.TID 0000.0001) %MON vort_p_sd                    =   1.3126444450617E-04
(PID.TID 0000.0001) %MON surfExpan_theta_mean         =   1.6129174175931E-04
(PID.TID 0000.0001) %MON surfExpan_salt_mean          =   1.3255561350299E-05
(PID.TID 0000.0001) // =======================================================
(PID.TID 0000.0001) // End MONITOR dynamic field statistics
(PID.TID 0000.0001) // =======================================================
(PID.TID 0000.0001)  MDS_WRITE_RL_VEC: irec =  00000002   00066240
(PID.TID 0000.0001)  MDS_WRITE_RL_VEC: irec =  00000002   00066240
(PID.TID 0000.0001)  MDS_WRITE_RL_VEC: irec =  00000002   00066240
(PID.TID 0000.0001)  MDS_WRITE_RL_VEC: irec =  00000002   00066240
(PID.TID 0000.0001)  MDS_WRITE_RL_VEC: irec =  00000002   00066240
(PID.TID 0000.0001)  MDS_WRITE_RL_VEC: irec =  00000002   00066240
(PID.TID 0000.0001)  MDS_WRITE_RL_VEC: irec =  00000002   00066240
(PID.TID 0000.0001)  MDS_WRITE_RL_VEC: irec =  00000002   00066240
(PID.TID 0000.0001)  MDS_WRITE_RL_VEC: irec =  00000002   00066240
(PID.TID 0000.0001)  MDS_WRITE_RL_VEC: irec =  00000002   00066240
(PID.TID 0000.0001)  MDS_WRITE_RL_VEC: irec =  00000002   00066240
(PID.TID 0000.0001)  MDS_WRITE_RL_VEC: irec =  00000002   00004416
(PID.TID 0000.0001)  MDS_WRITE_RL_VEC: irec =  00000002   00066240
(PID.TID 0000.0001)  MDS_WRITE_RL_VEC: irec =  00000002   00004416
(PID.TID 0000.0001)  MDS_WRITE_RL_VEC: irec =  00000002   00004416
(PID.TID 0000.0001)  MDS_WRITE_RL_VEC: irec =  00000002   00004416
(PID.TID 0000.0001)  MDS_WRITE_RL_VEC: irec =  00000002   00004416
(PID.TID 0000.0001)  MDS_WRITE_RL_VEC: irec =  00000002   00004416
(PID.TID 0000.0001)  MDS_WRITE_RL_VEC: irec =  00000002   00004416
(PID.TID 0000.0001)  MDS_WRITE_RL_VEC: irec =  00000002   00004416
(PID.TID 0000.0001)  MDS_WRITE_RL_VEC: irec =  00000002   00004416
(PID.TID 0000.0001)  MDS_WRITE_RL_VEC: irec =  00000002   00004416
(PID.TID 0000.0001)  MDS_WRITE_RL_VEC: irec =  00000002   00004416
(PID.TID 0000.0001)  MDS_WRITE_RL_VEC: irec =  00000002   00004416
(PID.TID 0000.0001)  MDS_WRITE_RL_VEC: irec =  00000002   00004416
(PID.TID 0000.0001)  MDS_WRITE_RL_VEC: irec =  00000002   00004416
(PID.TID 0000.0001)  MDS_WRITE_RL_VEC: irec =  00000002   00004416
(PID.TID 0000.0001)  MDS_WRITE_RL_VEC: irec =  00000002   00004416
(PID.TID 0000.0001)  MDS_WRITE_RL_VEC: irec =  00000002   00004416
(PID.TID 0000.0001)  MDS_WRITE_RL_VEC: irec =  00000002   00004416
(PID.TID 0000.0001)  MDS_WRITE_RL_VEC: irec =  00000002   00004416
time,SST,SSS,fu,fv,Q,E-P,i0,i1,a,b =   2.5920E+05  2.3421E-01  3.4434E+01 -3.9527E-02 -6.2453E-02  2.6523E+02  0.0000E+00    12     1  6.0000E-01  4.0000E-01
time,fu0,fu1,fu =   2.5920E+05 -4.5368E-02 -3.5633E-02 -3.9527E-02  6.0000E-01  4.0000E-01
 cg2d: Sum(rhs),rhsMax =  -1.91834395590895E-14  7.15197465286572E+00
(PID.TID 0000.0001)                    cg2d_init_res =    1.59738164591764E+00
(PID.TID 0000.0001)                       cg2d_iters =    26
(PID.TID 0000.0001)                         cg2d_res =    2.62641988737220E-14
(PID.TID 0000.0001) // =======================================================
(PID.TID 0000.0001) // Begin MONITOR dynamic field statistics
(PID.TID 0000.0001) // =======================================================
(PID.TID 0000.0001) %MON time_tsnumber                =                     7
(PID.TID 0000.0001) %MON time_secondsf                =   3.0240000000000E+05
(PID.TID 0000.0001) %MON dynstat_eta_max              =   8.2241092333071E-01
(PID.TID 0000.0001) %MON dynstat_eta_min              =  -7.0122096557053E-01
(PID.TID 0000.0001) %MON dynstat_eta_mean             =  -1.2061476232645E-17
(PID.TID 0000.0001) %MON dynstat_eta_sd               =   2.0514322641313E-01
(PID.TID 0000.0001) %MON dynstat_eta_del2             =   2.7124802488812E-02
(PID.TID 0000.0001) %MON dynstat_uvel_max             =   8.0140737374691E-02
(PID.TID 0000.0001) %MON dynstat_uvel_min             =  -7.5133654501574E-02
(PID.TID 0000.0001) %MON dynstat_uvel_mean            =  -4.6308632570488E-03
(PID.TID 0000.0001) %MON dynstat_uvel_sd              =   7.2758119319908E-03
(PID.TID 0000.0001) %MON dynstat_uvel_del2            =   2.4440334158700E-03
(PID.TID 0000.0001) %MON dynstat_vvel_max             =   7.9433858079765E-02
(PID.TID 0000.0001) %MON dynstat_vvel_min             =  -7.2766938579968E-02
(PID.TID 0000.0001) %MON dynstat_vvel_mean            =   4.7577705534311E-03
(PID.TID 0000.0001) %MON dynstat_vvel_sd              =   1.4358569881164E-02
(PID.TID 0000.0001) %MON dynstat_vvel_del2            =   2.8496681182203E-03
(PID.TID 0000.0001) %MON dynstat_wvel_max             =   2.8110386621251E-04
(PID.TID 0000.0001) %MON dynstat_wvel_min             =  -3.0181171442859E-04
(PID.TID 0000.0001) %MON dynstat_wvel_mean            =  -2.6367335694682E-22
(PID.TID 0000.0001) %MON dynstat_wvel_sd              =   3.4463613104968E-05
(PID.TID 0000.0001) %MON dynstat_wvel_del2            =   1.1492159747404E-05
(PID.TID 0000.0001) %MON dynstat_theta_max            =   2.9720036485839E+01
(PID.TID 0000.0001) %MON dynstat_theta_min            =  -1.9960570532199E+00
(PID.TID 0000.0001) %MON dynstat_theta_mean           =   3.6094295270755E+00
(PID.TID 0000.0001) %MON dynstat_theta_sd             =   4.3945911884779E+00
(PID.TID 0000.0001) %MON dynstat_theta_del2           =   1.4421339698756E-01
(PID.TID 0000.0001) %MON dynstat_salt_max             =   3.7446951356462E+01
(PID.TID 0000.0001) %MON dynstat_salt_min             =   2.9778528273974E+01
(PID.TID 0000.0001) %MON dynstat_salt_mean            =   3.4717151911023E+01
(PID.TID 0000.0001) %MON dynstat_salt_sd              =   2.9598386105932E-01
(PID.TID 0000.0001) %MON dynstat_salt_del2            =   2.5992106483460E-02
(PID.TID 0000.0001) %MON advcfl_uvel_max              =   1.7764484423089E-02
(PID.TID 0000.0001) %MON advcfl_vvel_max              =   7.7163623294892E-03
(PID.TID 0000.0001) %MON advcfl_wvel_max              =   1.8338362367862E-01
(PID.TID 0000.0001) %MON advcfl_W_hf_max              =   1.8262146266474E-01
(PID.TID 0000.0001) %MON pe_b_mean                    =   5.3851222080326E-05
(PID.TID 0000.0001) %MON ke_max                       =   3.2883081749723E-03
(PID.TID 0000.0001) %MON ke_mean                      =   1.3651357496444E-04
(PID.TID 0000.0001) %MON ke_vol                       =   1.3226782436723E+18
(PID.TID 0000.0001) %MON vort_r_min                   =  -3.1772573175658E-07
(PID.TID 0000.0001) %MON vort_r_max                   =   3.3848954948146E-07
(PID.TID 0000.0001) %MON vort_a_mean                  =  -2.5205769190669E-05
(PID.TID 0000.0001) %MON vort_a_sd                    =   7.3402395538459E-05
(PID.TID 0000.0001) %MON vort_p_mean                  =  -3.1758669301984E-05
(PID.TID 0000.0001) %MON vort_p_sd                    =   1.3126385217334E-04
(PID.TID 0000.0001) %MON surfExpan_theta_mean         =   1.6714370919311E-04
(PID.TID 0000.0001) %MON surfExpan_salt_mean          =   1.3552568122579E-05
(PID.TID 0000.0001) // =======================================================
(PID.TID 0000.0001) // End MONITOR dynamic field statistics
(PID.TID 0000.0001) // =======================================================
time,SST,SSS,fu,fv,Q,E-P,i0,i1,a,b =   3.0240E+05  2.6438E-01  3.4446E+01 -3.9365E-02 -6.2237E-02  2.6525E+02  0.0000E+00    12     1  6.1667E-01  3.8333E-01
time,fu0,fu1,fu =   3.0240E+05 -4.5368E-02 -3.5633E-02 -3.9365E-02  6.1667E-01  3.8333E-01
 cg2d: Sum(rhs),rhsMax =  -5.15221545982492E-14  7.75912737003211E+00
(PID.TID 0000.0001)                    cg2d_init_res =    1.41815022550285E+00
(PID.TID 0000.0001)                       cg2d_iters =    26
(PID.TID 0000.0001)                         cg2d_res =    2.36111246841890E-14
(PID.TID 0000.0001) // =======================================================
(PID.TID 0000.0001) // Begin MONITOR dynamic field statistics
(PID.TID 0000.0001) // =======================================================
(PID.TID 0000.0001) %MON time_tsnumber                =                     8
(PID.TID 0000.0001) %MON time_secondsf                =   3.4560000000000E+05
(PID.TID 0000.0001) %MON dynstat_eta_max              =   8.9650260250649E-01
(PID.TID 0000.0001) %MON dynstat_eta_min              =  -7.3524935538068E-01
(PID.TID 0000.0001) %MON dynstat_eta_mean             =   7.1423902401168E-17
(PID.TID 0000.0001) %MON dynstat_eta_sd               =   2.3053366000746E-01
(PID.TID 0000.0001) %MON dynstat_eta_del2             =   2.6272280887432E-02
(PID.TID 0000.0001) %MON dynstat_uvel_max             =   9.1706035754972E-02
(PID.TID 0000.0001) %MON dynstat_uvel_min             =  -9.5582619500714E-02
(PID.TID 0000.0001) %MON dynstat_uvel_mean            =  -5.5596287471521E-03
(PID.TID 0000.0001) %MON dynstat_uvel_sd              =   8.5682222677367E-03
(PID.TID 0000.0001) %MON dynstat_uvel_del2            =   2.7287171699338E-03
(PID.TID 0000.0001) %MON dynstat_vvel_max             =   8.7404412837528E-02
(PID.TID 0000.0001) %MON dynstat_vvel_min             =  -8.4408846778390E-02
(PID.TID 0000.0001) %MON dynstat_vvel_mean            =   5.0090112147663E-03
(PID.TID 0000.0001) %MON dynstat_vvel_sd              =   1.5079059633243E-02
(PID.TID 0000.0001) %MON dynstat_vvel_del2            =   3.1472846484758E-03
(PID.TID 0000.0001) %MON dynstat_wvel_max             =   3.0283417306452E-04
(PID.TID 0000.0001) %MON dynstat_wvel_min             =  -3.2829884556809E-04
(PID.TID 0000.0001) %MON dynstat_wvel_mean            =  -8.7182850770930E-22
(PID.TID 0000.0001) %MON dynstat_wvel_sd              =   3.6352001202761E-05
(PID.TID 0000.0001) %MON dynstat_wvel_del2            =   1.2630465675372E-05
(PID.TID 0000.0001) %MON dynstat_theta_max            =   2.9705167312635E+01
(PID.TID 0000.0001) %MON dynstat_theta_min            =  -2.0133922165686E+00
(PID.TID 0000.0001) %MON dynstat_theta_mean           =   3.6075474243549E+00
(PID.TID 0000.0001) %MON dynstat_theta_sd             =   4.3902298724629E+00
(PID.TID 0000.0001) %MON dynstat_theta_del2           =   1.4324082430225E-01
(PID.TID 0000.0001) %MON dynstat_salt_max             =   3.7444925804362E+01
(PID.TID 0000.0001) %MON dynstat_salt_min             =   2.9782263857737E+01
(PID.TID 0000.0001) %MON dynstat_salt_mean            =   3.4717001360449E+01
(PID.TID 0000.0001) %MON dynstat_salt_sd              =   2.9594522263456E-01
(PID.TID 0000.0001) %MON dynstat_salt_del2            =   2.5903061914694E-02
(PID.TID 0000.0001) %MON advcfl_uvel_max              =   1.9385286530362E-02
(PID.TID 0000.0001) %MON advcfl_vvel_max              =   8.4906378080411E-03
(PID.TID 0000.0001) %MON advcfl_wvel_max              =   1.9847901459936E-01
(PID.TID 0000.0001) %MON advcfl_W_hf_max              =   2.0418629431284E-01
(PID.TID 0000.0001) %MON pe_b_mean                    =   6.8006416473147E-05
(PID.TID 0000.0001) %MON ke_max                       =   4.3071999600391E-03
(PID.TID 0000.0001) %MON ke_mean                      =   1.6073998684811E-04
(PID.TID 0000.0001) %MON ke_vol                       =   1.3226782436723E+18
(PID.TID 0000.0001) %MON vort_r_min                   =  -3.4275975421683E-07
(PID.TID 0000.0001) %MON vort_r_max                   =   4.1943167171669E-07
(PID.TID 0000.0001) %MON vort_a_mean                  =  -2.5205769233152E-05
(PID.TID 0000.0001) %MON vort_a_sd                    =   7.3402221263636E-05
(PID.TID 0000.0001) %MON vort_p_mean                  =  -3.1758669355512E-05
(PID.TID 0000.0001) %MON vort_p_sd                    =   1.3126321830726E-04
(PID.TID 0000.0001) %MON surfExpan_theta_mean         =   1.6876542317858E-04
(PID.TID 0000.0001) %MON surfExpan_salt_mean          =   1.3448645927714E-05
(PID.TID 0000.0001) // =======================================================
(PID.TID 0000.0001) // End MONITOR dynamic field statistics
(PID.TID 0000.0001) // =======================================================
time,SST,SSS,fu,fv,Q,E-P,i0,i1,a,b =   3.4560E+05  2.9456E-01  3.4457E+01 -3.9202E-02 -6.2020E-02  2.6528E+02  0.0000E+00    12     1  6.3333E-01  3.6667E-01
time,fu0,fu1,fu =   3.4560E+05 -4.5368E-02 -3.5633E-02 -3.9202E-02  6.3333E-01  3.6667E-01
 cg2d: Sum(rhs),rhsMax =  -9.81766751229074E-15  8.10189543860990E+00
(PID.TID 0000.0001)                    cg2d_init_res =    1.30943319583915E+00
(PID.TID 0000.0001)                       cg2d_iters =    25
(PID.TID 0000.0001)                         cg2d_res =    9.75841872088373E-14
(PID.TID 0000.0001) // =======================================================
(PID.TID 0000.0001) // Begin MONITOR dynamic field statistics
(PID.TID 0000.0001) // =======================================================
(PID.TID 0000.0001) %MON time_tsnumber                =                     9
(PID.TID 0000.0001) %MON time_secondsf                =   3.8880000000000E+05
(PID.TID 0000.0001) %MON dynstat_eta_max              =   9.4064172109216E-01
(PID.TID 0000.0001) %MON dynstat_eta_min              =  -8.1284644268366E-01
(PID.TID 0000.0001) %MON dynstat_eta_mean             =   2.0683211468162E-17
(PID.TID 0000.0001) %MON dynstat_eta_sd               =   2.5465324513676E-01
(PID.TID 0000.0001) %MON dynstat_eta_del2             =   2.5570088666798E-02
(PID.TID 0000.0001) %MON dynstat_uvel_max             =   1.0289594293347E-01
(PID.TID 0000.0001) %MON dynstat_uvel_min             =  -1.1425471407149E-01
(PID.TID 0000.0001) %MON dynstat_uvel_mean            =  -6.4602880995525E-03
(PID.TID 0000.0001) %MON dynstat_uvel_sd              =   9.8690487977966E-03
(PID.TID 0000.0001) %MON dynstat_uvel_del2            =   2.9987328415348E-03
(PID.TID 0000.0001) %MON dynstat_vvel_max             =   9.2313953966729E-02
(PID.TID 0000.0001) %MON dynstat_vvel_min             =  -9.5436241088448E-02
(PID.TID 0000.0001) %MON dynstat_vvel_mean            =   5.1397209860702E-03
(PID.TID 0000.0001) %MON dynstat_vvel_sd              =   1.5563600994073E-02
(PID.TID 0000.0001) %MON dynstat_vvel_del2            =   3.4166961062218E-03
(PID.TID 0000.0001) %MON dynstat_wvel_max             =   3.2059522740497E-04
(PID.TID 0000.0001) %MON dynstat_wvel_min             =  -3.5192453575263E-04
(PID.TID 0000.0001) %MON dynstat_wvel_mean            =  -9.6196781472322E-22
(PID.TID 0000.0001) %MON dynstat_wvel_sd              =   3.7995755507349E-05
(PID.TID 0000.0001) %MON dynstat_wvel_del2            =   1.3583144288455E-05
(PID.TID 0000.0001) %MON dynstat_theta_max            =   2.9683514251005E+01
(PID.TID 0000.0001) %MON dynstat_theta_min            =  -2.0265867505611E+00
(PID.TID 0000.0001) %MON dynstat_theta_mean           =   3.6057148230305E+00
(PID.TID 0000.0001) %MON dynstat_theta_sd             =   4.3858307531006E+00
(PID.TID 0000.0001) %MON dynstat_theta_del2           =   1.4227783036145E-01
(PID.TID 0000.0001) %MON dynstat_salt_max             =   3.7443133627112E+01
(PID.TID 0000.0001) %MON dynstat_salt_min             =   2.9785619043049E+01
(PID.TID 0000.0001) %MON dynstat_salt_mean            =   3.4716858166526E+01
(PID.TID 0000.0001) %MON dynstat_salt_sd              =   2.9589856715514E-01
(PID.TID 0000.0001) %MON dynstat_salt_del2            =   2.5817882786434E-02
(PID.TID 0000.0001) %MON advcfl_uvel_max              =   1.9732454209858E-02
(PID.TID 0000.0001) %MON advcfl_vvel_max              =   9.2708655150989E-03
(PID.TID 0000.0001) %MON advcfl_wvel_max              =   2.0775397802010E-01
(PID.TID 0000.0001) %MON advcfl_W_hf_max              =   2.1660299052300E-01
(PID.TID 0000.0001) %MON pe_b_mean                    =   8.2981184539672E-05
(PID.TID 0000.0001) %MON ke_max                       =   5.4183702174993E-03
(PID.TID 0000.0001) %MON ke_mean                      =   1.8381578467116E-04
(PID.TID 0000.0001) %MON ke_vol                       =   1.3226782436723E+18
(PID.TID 0000.0001) %MON vort_r_min                   =  -3.6241054083024E-07
(PID.TID 0000.0001) %MON vort_r_max                   =   5.0229434668899E-07
(PID.TID 0000.0001) %MON vort_a_mean                  =  -2.5205769294172E-05
(PID.TID 0000.0001) %MON vort_a_sd                    =   7.3402051636646E-05
(PID.TID 0000.0001) %MON vort_p_mean                  =  -3.1758669432396E-05
(PID.TID 0000.0001) %MON vort_p_sd                    =   1.3126256325809E-04
(PID.TID 0000.0001) %MON surfExpan_theta_mean         =   1.6670246632730E-04
(PID.TID 0000.0001) %MON surfExpan_salt_mean          =   1.3000316652433E-05
(PID.TID 0000.0001) // =======================================================
(PID.TID 0000.0001) // End MONITOR dynamic field statistics
(PID.TID 0000.0001) // =======================================================
time,SST,SSS,fu,fv,Q,E-P,i0,i1,a,b =   3.8880E+05  3.2473E-01  3.4469E+01 -3.9040E-02 -6.1804E-02  2.6530E+02  0.0000E+00    12     1  6.5000E-01  3.5000E-01
time,fu0,fu1,fu =   3.8880E+05 -4.5368E-02 -3.5633E-02 -3.9040E-02  6.5000E-01  3.5000E-01
 cg2d: Sum(rhs),rhsMax =  -7.33621605304713E-14  8.20838987866646E+00
(PID.TID 0000.0001)                    cg2d_init_res =    1.24843073915269E+00
(PID.TID 0000.0001)                       cg2d_iters =    25
(PID.TID 0000.0001)                         cg2d_res =    9.14512458266233E-14
(PID.TID 0000.0001) // =======================================================
(PID.TID 0000.0001) // Begin MONITOR dynamic field statistics
(PID.TID 0000.0001) // =======================================================
(PID.TID 0000.0001) %MON time_tsnumber                =                    10
(PID.TID 0000.0001) %MON time_secondsf                =   4.3200000000000E+05
(PID.TID 0000.0001) %MON dynstat_eta_max              =   9.5839646272561E-01
(PID.TID 0000.0001) %MON dynstat_eta_min              =  -8.6938680930188E-01
(PID.TID 0000.0001) %MON dynstat_eta_mean             =   8.6433617385285E-17
(PID.TID 0000.0001) %MON dynstat_eta_sd               =   2.7723382795637E-01
(PID.TID 0000.0001) %MON dynstat_eta_del2             =   2.4849531777398E-02
(PID.TID 0000.0001) %MON dynstat_uvel_max             =   1.1373756886608E-01
(PID.TID 0000.0001) %MON dynstat_uvel_min             =  -1.2999275285327E-01
(PID.TID 0000.0001) %MON dynstat_uvel_mean            =  -7.3056378157081E-03
(PID.TID 0000.0001) %MON dynstat_uvel_sd              =   1.1150072993368E-02
(PID.TID 0000.0001) %MON dynstat_uvel_del2            =   3.2513019892429E-03
(PID.TID 0000.0001) %MON dynstat_vvel_max             =   9.4244432993565E-02
(PID.TID 0000.0001) %MON dynstat_vvel_min             =  -1.0568944791906E-01
(PID.TID 0000.0001) %MON dynstat_vvel_mean            =   5.1564895544277E-03
(PID.TID 0000.0001) %MON dynstat_vvel_sd              =   1.5849828823741E-02
(PID.TID 0000.0001) %MON dynstat_vvel_del2            =   3.6614959768064E-03
(PID.TID 0000.0001) %MON dynstat_wvel_max             =   3.3353586626318E-04
(PID.TID 0000.0001) %MON dynstat_wvel_min             =  -3.7345509014435E-04
(PID.TID 0000.0001) %MON dynstat_wvel_mean            =   1.7419625278413E-21
(PID.TID 0000.0001) %MON dynstat_wvel_sd              =   3.9324351313762E-05
(PID.TID 0000.0001) %MON dynstat_wvel_del2            =   1.4353228295727E-05
(PID.TID 0000.0001) %MON dynstat_theta_max            =   2.9658224716121E+01
(PID.TID 0000.0001) %MON dynstat_theta_min            =  -2.0353181002063E+00
(PID.TID 0000.0001) %MON dynstat_theta_mean           =   3.6039629209126E+00
(PID.TID 0000.0001) %MON dynstat_theta_sd             =   4.3814523702888E+00
(PID.TID 0000.0001) %MON dynstat_theta_del2           =   1.4133112848354E-01
(PID.TID 0000.0001) %MON dynstat_salt_max             =   3.7441345491798E+01
(PID.TID 0000.0001) %MON dynstat_salt_min             =   2.9788514598536E+01
(PID.TID 0000.0001) %MON dynstat_salt_mean            =   3.4716725143949E+01
(PID.TID 0000.0001) %MON dynstat_salt_sd              =   2.9584489988485E-01
(PID.TID 0000.0001) %MON dynstat_salt_del2            =   2.5734084133149E-02
(PID.TID 0000.0001) %MON advcfl_uvel_max              =   1.8856813940104E-02
(PID.TID 0000.0001) %MON advcfl_vvel_max              =   1.0266882337859E-02
(PID.TID 0000.0001) %MON advcfl_wvel_max              =   2.1508811886985E-01
(PID.TID 0000.0001) %MON advcfl_W_hf_max              =   2.1059823321920E-01
(PID.TID 0000.0001) %MON pe_b_mean                    =   9.8349836751467E-05
(PID.TID 0000.0001) %MON ke_max                       =   6.6177441360539E-03
(PID.TID 0000.0001) %MON ke_mean                      =   2.0544969456456E-04
(PID.TID 0000.0001) %MON ke_vol                       =   1.3226782436723E+18
(PID.TID 0000.0001) %MON vort_r_min                   =  -3.7957105181246E-07
(PID.TID 0000.0001) %MON vort_r_max                   =   5.8076043380028E-07
(PID.TID 0000.0001) %MON vort_a_mean                  =  -2.5205769362016E-05
(PID.TID 0000.0001) %MON vort_a_sd                    =   7.3401891341811E-05
(PID.TID 0000.0001) %MON vort_p_mean                  =  -3.1758669517878E-05
(PID.TID 0000.0001) %MON vort_p_sd                    =   1.3126190975325E-04
(PID.TID 0000.0001) %MON surfExpan_theta_mean         =   1.6153799966031E-04
(PID.TID 0000.0001) %MON surfExpan_salt_mean          =   1.2267062989865E-05
(PID.TID 0000.0001) // =======================================================
(PID.TID 0000.0001) // End MONITOR dynamic field statistics
(PID.TID 0000.0001) // =======================================================
time,SST,SSS,fu,fv,Q,E-P,i0,i1,a,b =   4.3200E+05  3.5491E-01  3.4481E+01 -3.8878E-02 -6.1587E-02  2.6532E+02  0.0000E+00    12     1  6.6667E-01  3.3333E-01
time,fu0,fu1,fu =   4.3200E+05 -4.5368E-02 -3.5633E-02 -3.8878E-02  6.6667E-01  3.3333E-01
 cg2d: Sum(rhs),rhsMax =   1.99253807897648E-13  8.13787538473572E+00
(PID.TID 0000.0001)                    cg2d_init_res =    1.21764756088769E+00
(PID.TID 0000.0001)                       cg2d_iters =    25
(PID.TID 0000.0001)                         cg2d_res =    8.73112779654718E-14
(PID.TID 0000.0001) // =======================================================
(PID.TID 0000.0001) // Begin MONITOR dynamic field statistics
(PID.TID 0000.0001) // =======================================================
(PID.TID 0000.0001) %MON time_tsnumber                =                    11
(PID.TID 0000.0001) %MON time_secondsf                =   4.7520000000000E+05
(PID.TID 0000.0001) %MON dynstat_eta_max              =   9.5610500298100E-01
(PID.TID 0000.0001) %MON dynstat_eta_min              =  -9.2347738318009E-01
(PID.TID 0000.0001) %MON dynstat_eta_mean             =   7.9001778133880E-17
(PID.TID 0000.0001) %MON dynstat_eta_sd               =   2.9801988730907E-01
(PID.TID 0000.0001) %MON dynstat_eta_del2             =   2.4165557886083E-02
(PID.TID 0000.0001) %MON dynstat_uvel_max             =   1.2423150973066E-01
(PID.TID 0000.0001) %MON dynstat_uvel_min             =  -1.4212537732057E-01
(PID.TID 0000.0001) %MON dynstat_uvel_mean            =  -8.0714444027394E-03
(PID.TID 0000.0001) %MON dynstat_uvel_sd              =   1.2387262939717E-02
(PID.TID 0000.0001) %MON dynstat_uvel_del2            =   3.4894736146787E-03
(PID.TID 0000.0001) %MON dynstat_vvel_max             =   1.0267072707750E-01
(PID.TID 0000.0001) %MON dynstat_vvel_min             =  -1.1495449155366E-01
(PID.TID 0000.0001) %MON dynstat_vvel_mean            =   5.0702594306727E-03
(PID.TID 0000.0001) %MON dynstat_vvel_sd              =   1.5979352527300E-02
(PID.TID 0000.0001) %MON dynstat_vvel_del2            =   3.8841206684482E-03
(PID.TID 0000.0001) %MON dynstat_wvel_max             =   3.4118276964385E-04
(PID.TID 0000.0001) %MON dynstat_wvel_min             =  -3.9350646468461E-04
(PID.TID 0000.0001) %MON dynstat_wvel_mean            =  -9.9487415690109E-22
(PID.TID 0000.0001) %MON dynstat_wvel_sd              =   4.0324072934805E-05
(PID.TID 0000.0001) %MON dynstat_wvel_del2            =   1.4965131265781E-05
(PID.TID 0000.0001) %MON dynstat_theta_max            =   2.9631739620573E+01
(PID.TID 0000.0001) %MON dynstat_theta_min            =  -2.0399153178365E+00
(PID.TID 0000.0001) %MON dynstat_theta_mean           =   3.6023161772193E+00
(PID.TID 0000.0001) %MON dynstat_theta_sd             =   4.3771457404219E+00
(PID.TID 0000.0001) %MON dynstat_theta_del2           =   1.4043064964080E-01
(PID.TID 0000.0001) %MON dynstat_salt_max             =   3.7439433201862E+01
(PID.TID 0000.0001) %MON dynstat_salt_min             =   2.9790894406875E+01
(PID.TID 0000.0001) %MON dynstat_salt_mean            =   3.4716604361588E+01
(PID.TID 0000.0001) %MON dynstat_salt_sd              =   2.9578665584490E-01
(PID.TID 0000.0001) %MON dynstat_salt_del2            =   2.5656374169286E-02
(PID.TID 0000.0001) %MON advcfl_uvel_max              =   1.9785726203653E-02
(PID.TID 0000.0001) %MON advcfl_vvel_max              =   1.1166907030243E-02
(PID.TID 0000.0001) %MON advcfl_wvel_max              =   2.1779858057428E-01
(PID.TID 0000.0001) %MON advcfl_W_hf_max              =   2.0603406638274E-01
(PID.TID 0000.0001) %MON pe_b_mean                    =   1.1365058943619E-04
(PID.TID 0000.0001) %MON ke_max                       =   7.8966171296991E-03
(PID.TID 0000.0001) %MON ke_mean                      =   2.2548430614210E-04
(PID.TID 0000.0001) %MON ke_vol                       =   1.3226782436723E+18
(PID.TID 0000.0001) %MON vort_r_min                   =  -3.9933716855938E-07
(PID.TID 0000.0001) %MON vort_r_max                   =   6.5182433134292E-07
(PID.TID 0000.0001) %MON vort_a_mean                  =  -2.5205769425787E-05
(PID.TID 0000.0001) %MON vort_a_sd                    =   7.3401744646166E-05
(PID.TID 0000.0001) %MON vort_p_mean                  =  -3.1758669598227E-05
(PID.TID 0000.0001) %MON vort_p_sd                    =   1.3126128190073E-04
(PID.TID 0000.0001) %MON surfExpan_theta_mean         =   1.5383370580066E-04
(PID.TID 0000.0001) %MON surfExpan_salt_mean          =   1.1309640385237E-05
(PID.TID 0000.0001) // =======================================================
(PID.TID 0000.0001) // End MONITOR dynamic field statistics
(PID.TID 0000.0001) // =======================================================
time,SST,SSS,fu,fv,Q,E-P,i0,i1,a,b =   4.7520E+05  3.8508E-01  3.4492E+01 -3.8716E-02 -6.1371E-02  2.6534E+02  0.0000E+00    12     1  6.8333E-01  3.1667E-01
time,fu0,fu1,fu =   4.7520E+05 -4.5368E-02 -3.5633E-02 -3.8716E-02  6.8333E-01  3.1667E-01
 cg2d: Sum(rhs),rhsMax =   5.60549870409766E-14  8.14788871653525E+00
(PID.TID 0000.0001)                    cg2d_init_res =    1.17638061758654E+00
(PID.TID 0000.0001)                       cg2d_iters =    25
(PID.TID 0000.0001)                         cg2d_res =    8.27100366042113E-14
(PID.TID 0000.0001) // =======================================================
(PID.TID 0000.0001) // Begin MONITOR dynamic field statistics
(PID.TID 0000.0001) // =======================================================
(PID.TID 0000.0001) %MON time_tsnumber                =                    12
(PID.TID 0000.0001) %MON time_secondsf                =   5.1840000000000E+05
(PID.TID 0000.0001) %MON dynstat_eta_max              =   1.0074952809529E+00
(PID.TID 0000.0001) %MON dynstat_eta_min              =  -1.0456219087666E+00
(PID.TID 0000.0001) %MON dynstat_eta_mean             =   4.8438613906437E-17
(PID.TID 0000.0001) %MON dynstat_eta_sd               =   3.1679447258006E-01
(PID.TID 0000.0001) %MON dynstat_eta_del2             =   2.3412662740370E-02
(PID.TID 0000.0001) %MON dynstat_uvel_max             =   1.3434959297704E-01
(PID.TID 0000.0001) %MON dynstat_uvel_min             =  -1.5042032790358E-01
(PID.TID 0000.0001) %MON dynstat_uvel_mean            =  -8.7373307003610E-03
(PID.TID 0000.0001) %MON dynstat_uvel_sd              =   1.3561664814597E-02
(PID.TID 0000.0001) %MON dynstat_uvel_del2            =   3.7121775886335E-03
(PID.TID 0000.0001) %MON dynstat_vvel_max             =   1.0909702753803E-01
(PID.TID 0000.0001) %MON dynstat_vvel_min             =  -1.2299796209817E-01
(PID.TID 0000.0001) %MON dynstat_vvel_mean            =   4.8958448610793E-03
(PID.TID 0000.0001) %MON dynstat_vvel_sd              =   1.5995481883662E-02
(PID.TID 0000.0001) %MON dynstat_vvel_del2            =   4.0875317251543E-03
(PID.TID 0000.0001) %MON dynstat_wvel_max             =   3.4889557015636E-04
(PID.TID 0000.0001) %MON dynstat_wvel_min             =  -4.1226545755769E-04
(PID.TID 0000.0001) %MON dynstat_wvel_mean            =  -5.6660573253529E-22
(PID.TID 0000.0001) %MON dynstat_wvel_sd              =   4.1016284767797E-05
(PID.TID 0000.0001) %MON dynstat_wvel_del2            =   1.5439433044266E-05
(PID.TID 0000.0001) %MON dynstat_theta_max            =   2.9604817057475E+01
(PID.TID 0000.0001) %MON dynstat_theta_min            =  -2.0410855219121E+00
(PID.TID 0000.0001) %MON dynstat_theta_mean           =   3.6007932573729E+00
(PID.TID 0000.0001) %MON dynstat_theta_sd             =   4.3729551676931E+00
(PID.TID 0000.0001) %MON dynstat_theta_del2           =   1.3957805648999E-01
(PID.TID 0000.0001) %MON dynstat_salt_max             =   3.7437313117321E+01
(PID.TID 0000.0001) %MON dynstat_salt_min             =   2.9792878071387E+01
(PID.TID 0000.0001) %MON dynstat_salt_mean            =   3.4716497212704E+01
(PID.TID 0000.0001) %MON dynstat_salt_sd              =   2.9572488671074E-01
(PID.TID 0000.0001) %MON dynstat_salt_del2            =   2.5585432585345E-02
(PID.TID 0000.0001) %MON advcfl_uvel_max              =   2.3574391488344E-02
(PID.TID 0000.0001) %MON advcfl_vvel_max              =   1.1948265692763E-02
(PID.TID 0000.0001) %MON advcfl_wvel_max              =   2.1819616909153E-01
(PID.TID 0000.0001) %MON advcfl_W_hf_max              =   1.8945582097871E-01
(PID.TID 0000.0001) %MON pe_b_mean                    =   1.2842110161115E-04
(PID.TID 0000.0001) %MON ke_max                       =   9.2378762547374E-03
(PID.TID 0000.0001) %MON ke_mean                      =   2.4386551270202E-04
(PID.TID 0000.0001) %MON ke_vol                       =   1.3226782436723E+18
(PID.TID 0000.0001) %MON vort_r_min                   =  -4.0763666603829E-07
(PID.TID 0000.0001) %MON vort_r_max                   =   7.1290552974776E-07
(PID.TID 0000.0001) %MON vort_a_mean                  =  -2.5205769476608E-05
(PID.TID 0000.0001) %MON vort_a_sd                    =   7.3401615245771E-05
(PID.TID 0000.0001) %MON vort_p_mean                  =  -3.1758669662260E-05
(PID.TID 0000.0001) %MON vort_p_sd                    =   1.3126070388718E-04
(PID.TID 0000.0001) %MON surfExpan_theta_mean         =   1.4414352214402E-04
(PID.TID 0000.0001) %MON surfExpan_salt_mean          =   1.0192740010998E-05
(PID.TID 0000.0001) // =======================================================
(PID.TID 0000.0001) // End MONITOR dynamic field statistics
(PID.TID 0000.0001) // =======================================================
(PID.TID 0000.0001)  MDS_WRITE_RL_VEC: irec =  00000003   00066240
(PID.TID 0000.0001)  MDS_WRITE_RL_VEC: irec =  00000003   00066240
(PID.TID 0000.0001)  MDS_WRITE_RL_VEC: irec =  00000003   00066240
(PID.TID 0000.0001)  MDS_WRITE_RL_VEC: irec =  00000003   00066240
(PID.TID 0000.0001)  MDS_WRITE_RL_VEC: irec =  00000003   00066240
(PID.TID 0000.0001)  MDS_WRITE_RL_VEC: irec =  00000003   00066240
(PID.TID 0000.0001)  MDS_WRITE_RL_VEC: irec =  00000003   00066240
(PID.TID 0000.0001)  MDS_WRITE_RL_VEC: irec =  00000003   00066240
(PID.TID 0000.0001)  MDS_WRITE_RL_VEC: irec =  00000003   00066240
(PID.TID 0000.0001)  MDS_WRITE_RL_VEC: irec =  00000003   00066240
(PID.TID 0000.0001)  MDS_WRITE_RL_VEC: irec =  00000003   00066240
(PID.TID 0000.0001)  MDS_WRITE_RL_VEC: irec =  00000003   00004416
(PID.TID 0000.0001)  MDS_WRITE_RL_VEC: irec =  00000003   00066240
(PID.TID 0000.0001)  MDS_WRITE_RL_VEC: irec =  00000003   00004416
(PID.TID 0000.0001)  MDS_WRITE_RL_VEC: irec =  00000003   00004416
(PID.TID 0000.0001)  MDS_WRITE_RL_VEC: irec =  00000003   00004416
(PID.TID 0000.0001)  MDS_WRITE_RL_VEC: irec =  00000003   00004416
(PID.TID 0000.0001)  MDS_WRITE_RL_VEC: irec =  00000003   00004416
(PID.TID 0000.0001)  MDS_WRITE_RL_VEC: irec =  00000003   00004416
(PID.TID 0000.0001)  MDS_WRITE_RL_VEC: irec =  00000003   00004416
(PID.TID 0000.0001)  MDS_WRITE_RL_VEC: irec =  00000003   00004416
(PID.TID 0000.0001)  MDS_WRITE_RL_VEC: irec =  00000003   00004416
(PID.TID 0000.0001)  MDS_WRITE_RL_VEC: irec =  00000003   00004416
(PID.TID 0000.0001)  MDS_WRITE_RL_VEC: irec =  00000003   00004416
(PID.TID 0000.0001)  MDS_WRITE_RL_VEC: irec =  00000003   00004416
(PID.TID 0000.0001)  MDS_WRITE_RL_VEC: irec =  00000003   00004416
(PID.TID 0000.0001)  MDS_WRITE_RL_VEC: irec =  00000003   00004416
(PID.TID 0000.0001)  MDS_WRITE_RL_VEC: irec =  00000003   00004416
(PID.TID 0000.0001)  MDS_WRITE_RL_VEC: irec =  00000003   00004416
(PID.TID 0000.0001)  MDS_WRITE_RL_VEC: irec =  00000003   00004416
(PID.TID 0000.0001)  MDS_WRITE_RL_VEC: irec =  00000003   00004416
time,SST,SSS,fu,fv,Q,E-P,i0,i1,a,b =   5.1840E+05  4.1526E-01  3.4504E+01 -3.8553E-02 -6.1154E-02  2.6537E+02  0.0000E+00    12     1  7.0000E-01  3.0000E-01
time,fu0,fu1,fu =   5.1840E+05 -4.5368E-02 -3.5633E-02 -3.8553E-02  7.0000E-01  3.0000E-01
 cg2d: Sum(rhs),rhsMax =   4.12369791091827E-14  8.75897655452794E+00
(PID.TID 0000.0001)                    cg2d_init_res =    1.05920576293182E+00
(PID.TID 0000.0001)                       cg2d_iters =    25
(PID.TID 0000.0001)                         cg2d_res =    7.25210987990287E-14
(PID.TID 0000.0001) // =======================================================
(PID.TID 0000.0001) // Begin MONITOR dynamic field statistics
(PID.TID 0000.0001) // =======================================================
(PID.TID 0000.0001) %MON time_tsnumber                =                    13
(PID.TID 0000.0001) %MON time_secondsf                =   5.6160000000000E+05
(PID.TID 0000.0001) %MON dynstat_eta_max              =   1.0612829545239E+00
(PID.TID 0000.0001) %MON dynstat_eta_min              =  -1.1653293112422E+00
(PID.TID 0000.0001) %MON dynstat_eta_mean             =   1.8687229017250E-16
(PID.TID 0000.0001) %MON dynstat_eta_sd               =   3.3339719262203E-01
(PID.TID 0000.0001) %MON dynstat_eta_del2             =   2.2673870887820E-02
(PID.TID 0000.0001) %MON dynstat_uvel_max             =   1.4404834909188E-01
(PID.TID 0000.0001) %MON dynstat_uvel_min             =  -1.5498454381975E-01
(PID.TID 0000.0001) %MON dynstat_uvel_mean            =  -9.2875694555108E-03
(PID.TID 0000.0001) %MON dynstat_uvel_sd              =   1.4659495168684E-02
(PID.TID 0000.0001) %MON dynstat_uvel_del2            =   3.9196153165177E-03
(PID.TID 0000.0001) %MON dynstat_vvel_max             =   1.1511302164944E-01
(PID.TID 0000.0001) %MON dynstat_vvel_min             =  -1.2959861691202E-01
(PID.TID 0000.0001) %MON dynstat_vvel_mean            =   4.6511502524189E-03
(PID.TID 0000.0001) %MON dynstat_vvel_sd              =   1.5940318218163E-02
(PID.TID 0000.0001) %MON dynstat_vvel_del2            =   4.2693770790988E-03
(PID.TID 0000.0001) %MON dynstat_wvel_max             =   3.5504295575958E-04
(PID.TID 0000.0001) %MON dynstat_wvel_min             =  -4.3379769484514E-04
(PID.TID 0000.0001) %MON dynstat_wvel_mean            =  -1.7944101315451E-22
(PID.TID 0000.0001) %MON dynstat_wvel_sd              =   4.1437035347938E-05
(PID.TID 0000.0001) %MON dynstat_wvel_del2            =   1.5789013099211E-05
(PID.TID 0000.0001) %MON dynstat_theta_max            =   2.9576595204747E+01
(PID.TID 0000.0001) %MON dynstat_theta_min            =  -2.0394050925034E+00
(PID.TID 0000.0001) %MON dynstat_theta_mean           =   3.5994072651117E+00
(PID.TID 0000.0001) %MON dynstat_theta_sd             =   4.3689205827174E+00
(PID.TID 0000.0001) %MON dynstat_theta_del2           =   1.3880861731945E-01
(PID.TID 0000.0001) %MON dynstat_salt_max             =   3.7435093489310E+01
(PID.TID 0000.0001) %MON dynstat_salt_min             =   2.9794662480104E+01
(PID.TID 0000.0001) %MON dynstat_salt_mean            =   3.4716404418832E+01
(PID.TID 0000.0001) %MON dynstat_salt_sd              =   2.9566039145951E-01
(PID.TID 0000.0001) %MON dynstat_salt_del2            =   2.5522700832808E-02
(PID.TID 0000.0001) %MON advcfl_uvel_max              =   2.8361157493337E-02
(PID.TID 0000.0001) %MON advcfl_vvel_max              =   1.2589466377041E-02
(PID.TID 0000.0001) %MON advcfl_wvel_max              =   2.2481908658187E-01
(PID.TID 0000.0001) %MON advcfl_W_hf_max              =   1.9030767300178E-01
(PID.TID 0000.0001) %MON pe_b_mean                    =   1.4223454152641E-04
(PID.TID 0000.0001) %MON ke_max                       =   1.0616555645545E-02
(PID.TID 0000.0001) %MON ke_mean                      =   2.6060734247302E-04
(PID.TID 0000.0001) %MON ke_vol                       =   1.3226782436723E+18
(PID.TID 0000.0001) %MON vort_r_min                   =  -4.4248255377681E-07
(PID.TID 0000.0001) %MON vort_r_max                   =   7.6186072305213E-07
(PID.TID 0000.0001) %MON vort_a_mean                  =  -2.5205769508170E-05
(PID.TID 0000.0001) %MON vort_a_sd                    =   7.3401506117181E-05
(PID.TID 0000.0001) %MON vort_p_mean                  =  -3.1758669702028E-05
(PID.TID 0000.0001) %MON vort_p_sd                    =   1.3126019747987E-04
(PID.TID 0000.0001) %MON surfExpan_theta_mean         =   1.3296741887886E-04
(PID.TID 0000.0001) %MON surfExpan_salt_mean          =   8.9758489773729E-06
(PID.TID 0000.0001) // =======================================================
(PID.TID 0000.0001) // End MONITOR dynamic field statistics
(PID.TID 0000.0001) // =======================================================
time,SST,SSS,fu,fv,Q,E-P,i0,i1,a,b =   5.6160E+05  4.4544E-01  3.4516E+01 -3.8391E-02 -6.0938E-02  2.6539E+02  0.0000E+00    12     1  7.1667E-01  2.8333E-01
time,fu0,fu1,fu =   5.6160E+05 -4.5368E-02 -3.5633E-02 -3.8391E-02  7.1667E-01  2.8333E-01
 cg2d: Sum(rhs),rhsMax =   4.12918831071973E-13  9.51806764571326E+00
(PID.TID 0000.0001)                    cg2d_init_res =    9.45113260119202E-01
(PID.TID 0000.0001)                       cg2d_iters =    25
(PID.TID 0000.0001)                         cg2d_res =    6.20690420471110E-14
(PID.TID 0000.0001) // =======================================================
(PID.TID 0000.0001) // Begin MONITOR dynamic field statistics
(PID.TID 0000.0001) // =======================================================
(PID.TID 0000.0001) %MON time_tsnumber                =                    14
(PID.TID 0000.0001) %MON time_secondsf                =   6.0480000000000E+05
(PID.TID 0000.0001) %MON dynstat_eta_max              =   1.1485355435680E+00
(PID.TID 0000.0001) %MON dynstat_eta_min              =  -1.2548043026809E+00
(PID.TID 0000.0001) %MON dynstat_eta_mean             =   5.3410333610869E-17
(PID.TID 0000.0001) %MON dynstat_eta_sd               =   3.4773664888641E-01
(PID.TID 0000.0001) %MON dynstat_eta_del2             =   2.1998961311690E-02
(PID.TID 0000.0001) %MON dynstat_uvel_max             =   1.5328216187012E-01
(PID.TID 0000.0001) %MON dynstat_uvel_min             =  -1.5614301509586E-01
(PID.TID 0000.0001) %MON dynstat_uvel_mean            =  -9.7116381987772E-03
(PID.TID 0000.0001) %MON dynstat_uvel_sd              =   1.5671692324907E-02
(PID.TID 0000.0001) %MON dynstat_uvel_del2            =   4.1134681658670E-03
(PID.TID 0000.0001) %MON dynstat_vvel_max             =   1.2142408007299E-01
(PID.TID 0000.0001) %MON dynstat_vvel_min             =  -1.3456839281152E-01
(PID.TID 0000.0001) %MON dynstat_vvel_mean            =   4.3561212391120E-03
(PID.TID 0000.0001) %MON dynstat_vvel_sd              =   1.5851682332713E-02
(PID.TID 0000.0001) %MON dynstat_vvel_del2            =   4.4324655094176E-03
(PID.TID 0000.0001) %MON dynstat_wvel_max             =   3.6435773396527E-04
(PID.TID 0000.0001) %MON dynstat_wvel_min             =  -4.5417872256823E-04
(PID.TID 0000.0001) %MON dynstat_wvel_mean            =   4.9272248242927E-22
(PID.TID 0000.0001) %MON dynstat_wvel_sd              =   4.1623258046698E-05
(PID.TID 0000.0001) %MON dynstat_wvel_del2            =   1.6028652799389E-05
(PID.TID 0000.0001) %MON dynstat_theta_max            =   2.9551094168611E+01
(PID.TID 0000.0001) %MON dynstat_theta_min            =  -2.0351975023440E+00
(PID.TID 0000.0001) %MON dynstat_theta_mean           =   3.5981667106001E+00
(PID.TID 0000.0001) %MON dynstat_theta_sd             =   4.3650785577839E+00
(PID.TID 0000.0001) %MON dynstat_theta_del2           =   1.3811749497636E-01
(PID.TID 0000.0001) %MON dynstat_salt_max             =   3.7432983177770E+01
(PID.TID 0000.0001) %MON dynstat_salt_min             =   2.9796149611561E+01
(PID.TID 0000.0001) %MON dynstat_salt_mean            =   3.4716326194444E+01
(PID.TID 0000.0001) %MON dynstat_salt_sd              =   2.9559413105167E-01
(PID.TID 0000.0001) %MON dynstat_salt_del2            =   2.5466671737290E-02
(PID.TID 0000.0001) %MON advcfl_uvel_max              =   3.2411804031082E-02
(PID.TID 0000.0001) %MON advcfl_vvel_max              =   1.3072240252865E-02
(PID.TID 0000.0001) %MON advcfl_wvel_max              =   2.1573655509033E-01
(PID.TID 0000.0001) %MON advcfl_W_hf_max              =   1.8207111189941E-01
(PID.TID 0000.0001) %MON pe_b_mean                    =   1.5473270906786E-04
(PID.TID 0000.0001) %MON ke_max                       =   1.2003199982328E-02
(PID.TID 0000.0001) %MON ke_mean                      =   2.7575762859683E-04
(PID.TID 0000.0001) %MON ke_vol                       =   1.3226782436723E+18
(PID.TID 0000.0001) %MON vort_r_min                   =  -4.8129612415280E-07
(PID.TID 0000.0001) %MON vort_r_max                   =   7.9698723193220E-07
(PID.TID 0000.0001) %MON vort_a_mean                  =  -2.5205769517082E-05
(PID.TID 0000.0001) %MON vort_a_sd                    =   7.3401419396320E-05
(PID.TID 0000.0001) %MON vort_p_mean                  =  -3.1758669713256E-05
(PID.TID 0000.0001) %MON vort_p_sd                    =   1.3125977968143E-04
(PID.TID 0000.0001) %MON surfExpan_theta_mean         =   1.2074643194127E-04
(PID.TID 0000.0001) %MON surfExpan_salt_mean          =   7.7075901266065E-06
(PID.TID 0000.0001) // =======================================================
(PID.TID 0000.0001) // End MONITOR dynamic field statistics
(PID.TID 0000.0001) // =======================================================
time,SST,SSS,fu,fv,Q,E-P,i0,i1,a,b =   6.0480E+05  4.7561E-01  3.4527E+01 -3.8229E-02 -6.0721E-02  2.6541E+02  0.0000E+00    12     1  7.3333E-01  2.6667E-01
time,fu0,fu1,fu =   6.0480E+05 -4.5368E-02 -3.5633E-02 -3.8229E-02  7.3333E-01  2.6667E-01
 cg2d: Sum(rhs),rhsMax =   1.08753284155938E-13  1.00868019718989E+01
(PID.TID 0000.0001)                    cg2d_init_res =    8.67243369812957E-01
(PID.TID 0000.0001)                       cg2d_iters =    25
(PID.TID 0000.0001)                         cg2d_res =    5.35793844782717E-14
(PID.TID 0000.0001) // =======================================================
(PID.TID 0000.0001) // Begin MONITOR dynamic field statistics
(PID.TID 0000.0001) // =======================================================
(PID.TID 0000.0001) %MON time_tsnumber                =                    15
(PID.TID 0000.0001) %MON time_secondsf                =   6.4800000000000E+05
(PID.TID 0000.0001) %MON dynstat_eta_max              =   1.2150971531379E+00
(PID.TID 0000.0001) %MON dynstat_eta_min              =  -1.3020601585044E+00
(PID.TID 0000.0001) %MON dynstat_eta_mean             =  -2.5315569046708E-17
(PID.TID 0000.0001) %MON dynstat_eta_sd               =   3.5979595368228E-01
(PID.TID 0000.0001) %MON dynstat_eta_del2             =   2.1424787964468E-02
(PID.TID 0000.0001) %MON dynstat_uvel_max             =   1.6200762688573E-01
(PID.TID 0000.0001) %MON dynstat_uvel_min             =  -1.5433012197518E-01
(PID.TID 0000.0001) %MON dynstat_uvel_mean            =  -1.0004445957394E-02
(PID.TID 0000.0001) %MON dynstat_uvel_sd              =   1.6593270476420E-02
(PID.TID 0000.0001) %MON dynstat_uvel_del2            =   4.2923918439612E-03
(PID.TID 0000.0001) %MON dynstat_vvel_max             =   1.3606226549395E-01
(PID.TID 0000.0001) %MON dynstat_vvel_min             =  -1.3776614223560E-01
(PID.TID 0000.0001) %MON dynstat_vvel_mean            =   4.0315328910467E-03
(PID.TID 0000.0001) %MON dynstat_vvel_sd              =   1.5760333002216E-02
(PID.TID 0000.0001) %MON dynstat_vvel_del2            =   4.5770307731633E-03
(PID.TID 0000.0001) %MON dynstat_wvel_max             =   3.7148197433611E-04
(PID.TID 0000.0001) %MON dynstat_wvel_min             =  -4.7123660237785E-04
(PID.TID 0000.0001) %MON dynstat_wvel_mean            =  -1.3235792172588E-21
(PID.TID 0000.0001) %MON dynstat_wvel_sd              =   4.1606746877917E-05
(PID.TID 0000.0001) %MON dynstat_wvel_del2            =   1.6167259552914E-05
(PID.TID 0000.0001) %MON dynstat_theta_max            =   2.9542395231782E+01
(PID.TID 0000.0001) %MON dynstat_theta_min            =  -2.0208385279167E+00
(PID.TID 0000.0001) %MON dynstat_theta_mean           =   3.5970761800442E+00
(PID.TID 0000.0001) %MON dynstat_theta_sd             =   4.3614662348294E+00
(PID.TID 0000.0001) %MON dynstat_theta_del2           =   1.3751023821119E-01
(PID.TID 0000.0001) %MON dynstat_salt_max             =   3.7430915336348E+01
(PID.TID 0000.0001) %MON dynstat_salt_min             =   2.9797349653746E+01
(PID.TID 0000.0001) %MON dynstat_salt_mean            =   3.4716262412579E+01
(PID.TID 0000.0001) %MON dynstat_salt_sd              =   2.9552851351382E-01
(PID.TID 0000.0001) %MON dynstat_salt_del2            =   2.5416727677680E-02
(PID.TID 0000.0001) %MON advcfl_uvel_max              =   3.5305134337885E-02
(PID.TID 0000.0001) %MON advcfl_vvel_max              =   1.3382875966548E-02
(PID.TID 0000.0001) %MON advcfl_wvel_max              =   1.9084898054790E-01
(PID.TID 0000.0001) %MON advcfl_W_hf_max              =   1.5963714451267E-01
(PID.TID 0000.0001) %MON pe_b_mean                    =   1.6565088099413E-04
(PID.TID 0000.0001) %MON ke_max                       =   1.3368001581506E-02
(PID.TID 0000.0001) %MON ke_mean                      =   2.8937062052359E-04
(PID.TID 0000.0001) %MON ke_vol                       =   1.3226782436723E+18
(PID.TID 0000.0001) %MON vort_r_min                   =  -5.1855959119914E-07
(PID.TID 0000.0001) %MON vort_r_max                   =   8.1700956517120E-07
(PID.TID 0000.0001) %MON vort_a_mean                  =  -2.5205769502932E-05
(PID.TID 0000.0001) %MON vort_a_sd                    =   7.3401356308204E-05
(PID.TID 0000.0001) %MON vort_p_mean                  =  -3.1758669695428E-05
(PID.TID 0000.0001) %MON vort_p_sd                    =   1.3125946107041E-04
(PID.TID 0000.0001) %MON surfExpan_theta_mean         =   1.0787932043392E-04
(PID.TID 0000.0001) %MON surfExpan_salt_mean          =   6.4304429642116E-06
(PID.TID 0000.0001) // =======================================================
(PID.TID 0000.0001) // End MONITOR dynamic field statistics
(PID.TID 0000.0001) // =======================================================
time,SST,SSS,fu,fv,Q,E-P,i0,i1,a,b =   6.4800E+05  5.0579E-01  3.4539E+01 -3.8067E-02 -6.0505E-02  2.6543E+02  0.0000E+00    12     1  7.5000E-01  2.5000E-01
time,fu0,fu1,fu =   6.4800E+05 -4.5368E-02 -3.5633E-02 -3.8067E-02  7.5000E-01  2.5000E-01
 cg2d: Sum(rhs),rhsMax =   1.53514354006568E-13  1.04478985847005E+01
(PID.TID 0000.0001)                    cg2d_init_res =    8.17030634109378E-01
(PID.TID 0000.0001)                       cg2d_iters =    25
(PID.TID 0000.0001)                         cg2d_res =    4.55836331914184E-14
(PID.TID 0000.0001) // =======================================================
(PID.TID 0000.0001) // Begin MONITOR dynamic field statistics
(PID.TID 0000.0001) // =======================================================
(PID.TID 0000.0001) %MON time_tsnumber                =                    16
(PID.TID 0000.0001) %MON time_secondsf                =   6.9120000000000E+05
(PID.TID 0000.0001) %MON dynstat_eta_max              =   1.2574087867096E+00
(PID.TID 0000.0001) %MON dynstat_eta_min              =  -1.3029341329707E+00
(PID.TID 0000.0001) %MON dynstat_eta_mean             =   1.9454761942808E-16
(PID.TID 0000.0001) %MON dynstat_eta_sd               =   3.6963059737401E-01
(PID.TID 0000.0001) %MON dynstat_eta_del2             =   2.0994893064807E-02
(PID.TID 0000.0001) %MON dynstat_uvel_max             =   1.7017960994859E-01
(PID.TID 0000.0001) %MON dynstat_uvel_min             =  -1.5000525549260E-01
(PID.TID 0000.0001) %MON dynstat_uvel_mean            =  -1.0166170665766E-02
(PID.TID 0000.0001) %MON dynstat_uvel_sd              =   1.7422645981221E-02
(PID.TID 0000.0001) %MON dynstat_uvel_del2            =   4.4555740808848E-03
(PID.TID 0000.0001) %MON dynstat_vvel_max             =   1.4856730985174E-01
(PID.TID 0000.0001) %MON dynstat_vvel_min             =  -1.3910729942227E-01
(PID.TID 0000.0001) %MON dynstat_vvel_mean            =   3.6977192111901E-03
(PID.TID 0000.0001) %MON dynstat_vvel_sd              =   1.5688019277599E-02
(PID.TID 0000.0001) %MON dynstat_vvel_del2            =   4.7063314222348E-03
(PID.TID 0000.0001) %MON dynstat_wvel_max             =   3.7674129370981E-04
(PID.TID 0000.0001) %MON dynstat_wvel_min             =  -4.8523896918472E-04
(PID.TID 0000.0001) %MON dynstat_wvel_mean            =  -5.6821253510117E-22
(PID.TID 0000.0001) %MON dynstat_wvel_sd              =   4.1413500209339E-05
(PID.TID 0000.0001) %MON dynstat_wvel_del2            =   1.6220031117622E-05
(PID.TID 0000.0001) %MON dynstat_theta_max            =   2.9526691834252E+01
(PID.TID 0000.0001) %MON dynstat_theta_min            =  -1.9919559327368E+00
(PID.TID 0000.0001) %MON dynstat_theta_mean           =   3.5961364899673E+00
(PID.TID 0000.0001) %MON dynstat_theta_sd             =   4.3581146580667E+00
(PID.TID 0000.0001) %MON dynstat_theta_del2           =   1.3697217575082E-01
(PID.TID 0000.0001) %MON dynstat_salt_max             =   3.7428927415916E+01
(PID.TID 0000.0001) %MON dynstat_salt_min             =   2.9798282398952E+01
(PID.TID 0000.0001) %MON dynstat_salt_mean            =   3.4716212608049E+01
(PID.TID 0000.0001) %MON dynstat_salt_sd              =   2.9546409490767E-01
(PID.TID 0000.0001) %MON dynstat_salt_del2            =   2.5374118701295E-02
(PID.TID 0000.0001) %MON advcfl_uvel_max              =   3.6689459994249E-02
(PID.TID 0000.0001) %MON advcfl_vvel_max              =   1.4432122785504E-02
(PID.TID 0000.0001) %MON advcfl_wvel_max              =   1.7538773735934E-01
(PID.TID 0000.0001) %MON advcfl_W_hf_max              =   1.4544114860070E-01
(PID.TID 0000.0001) %MON pe_b_mean                    =   1.7483043112241E-04
(PID.TID 0000.0001) %MON ke_max                       =   1.4684231750536E-02
(PID.TID 0000.0001) %MON ke_mean                      =   3.0149046191487E-04
(PID.TID 0000.0001) %MON ke_vol                       =   1.3226782436723E+18
(PID.TID 0000.0001) %MON vort_r_min                   =  -5.5363633372215E-07
(PID.TID 0000.0001) %MON vort_r_max                   =   8.2105396603123E-07
(PID.TID 0000.0001) %MON vort_a_mean                  =  -2.5205769467976E-05
(PID.TID 0000.0001) %MON vort_a_sd                    =   7.3401317166086E-05
(PID.TID 0000.0001) %MON vort_p_mean                  =  -3.1758669651385E-05
(PID.TID 0000.0001) %MON vort_p_sd                    =   1.3125924520562E-04
(PID.TID 0000.0001) %MON surfExpan_theta_mean         =   9.4716240039036E-05
(PID.TID 0000.0001) %MON surfExpan_salt_mean          =   5.1751027635158E-06
(PID.TID 0000.0001) // =======================================================
(PID.TID 0000.0001) // End MONITOR dynamic field statistics
(PID.TID 0000.0001) // =======================================================
time,SST,SSS,fu,fv,Q,E-P,i0,i1,a,b =   6.9120E+05  5.3596E-01  3.4551E+01 -3.7904E-02 -6.0288E-02  2.6546E+02  0.0000E+00    12     1  7.6667E-01  2.3333E-01
time,fu0,fu1,fu =   6.9120E+05 -4.5368E-02 -3.5633E-02 -3.7904E-02  7.6667E-01  2.3333E-01
 cg2d: Sum(rhs),rhsMax =   1.99819327750816E-13  1.05953427007009E+01
(PID.TID 0000.0001)                    cg2d_init_res =    7.88731651145148E-01
(PID.TID 0000.0001)                       cg2d_iters =    25
(PID.TID 0000.0001)                         cg2d_res =    3.90314304910886E-14
(PID.TID 0000.0001) // =======================================================
(PID.TID 0000.0001) // Begin MONITOR dynamic field statistics
(PID.TID 0000.0001) // =======================================================
(PID.TID 0000.0001) %MON time_tsnumber                =                    17
(PID.TID 0000.0001) %MON time_secondsf                =   7.3440000000000E+05
(PID.TID 0000.0001) %MON dynstat_eta_max              =   1.2748707834715E+00
(PID.TID 0000.0001) %MON dynstat_eta_min              =  -1.2907216572224E+00
(PID.TID 0000.0001) %MON dynstat_eta_mean             =  -1.9467768902609E-16
(PID.TID 0000.0001) %MON dynstat_eta_sd               =   3.7736014294354E-01
(PID.TID 0000.0001) %MON dynstat_eta_del2             =   2.0524467239034E-02
(PID.TID 0000.0001) %MON dynstat_uvel_max             =   1.7774490652105E-01
(PID.TID 0000.0001) %MON dynstat_uvel_min             =  -1.4926336333062E-01
(PID.TID 0000.0001) %MON dynstat_uvel_mean            =  -1.0201740744192E-02
(PID.TID 0000.0001) %MON dynstat_uvel_sd              =   1.8160924516491E-02
(PID.TID 0000.0001) %MON dynstat_uvel_del2            =   4.6020511546106E-03
(PID.TID 0000.0001) %MON dynstat_vvel_max             =   1.5778040583614E-01
(PID.TID 0000.0001) %MON dynstat_vvel_min             =  -1.3918944812029E-01
(PID.TID 0000.0001) %MON dynstat_vvel_mean            =   3.3734526924482E-03
(PID.TID 0000.0001) %MON dynstat_vvel_sd              =   1.5646817356153E-02
(PID.TID 0000.0001) %MON dynstat_vvel_del2            =   4.8209120996768E-03
(PID.TID 0000.0001) %MON dynstat_wvel_max             =   3.8030664387969E-04
(PID.TID 0000.0001) %MON dynstat_wvel_min             =  -4.9520204350309E-04
(PID.TID 0000.0001) %MON dynstat_wvel_mean            =   2.6615215737060E-22
(PID.TID 0000.0001) %MON dynstat_wvel_sd              =   4.1066129323036E-05
(PID.TID 0000.0001) %MON dynstat_wvel_del2            =   1.6200425489343E-05
(PID.TID 0000.0001) %MON dynstat_theta_max            =   2.9503598297216E+01
(PID.TID 0000.0001) %MON dynstat_theta_min            =  -1.9537478546538E+00
(PID.TID 0000.0001) %MON dynstat_theta_mean           =   3.5953452921984E+00
(PID.TID 0000.0001) %MON dynstat_theta_sd             =   4.3550514732741E+00
(PID.TID 0000.0001) %MON dynstat_theta_del2           =   1.3650083139814E-01
(PID.TID 0000.0001) %MON dynstat_salt_max             =   3.7427216109477E+01
(PID.TID 0000.0001) %MON dynstat_salt_min             =   2.9798974427378E+01
(PID.TID 0000.0001) %MON dynstat_salt_mean            =   3.4716176125562E+01
(PID.TID 0000.0001) %MON dynstat_salt_sd              =   2.9540165448464E-01
(PID.TID 0000.0001) %MON dynstat_salt_del2            =   2.5338743470549E-02
(PID.TID 0000.0001) %MON advcfl_uvel_max              =   3.6321893762213E-02
(PID.TID 0000.0001) %MON advcfl_vvel_max              =   1.5327101180241E-02
(PID.TID 0000.0001) %MON advcfl_wvel_max              =   1.8233824504565E-01
(PID.TID 0000.0001) %MON advcfl_W_hf_max              =   1.4646709450425E-01
(PID.TID 0000.0001) %MON pe_b_mean                    =   1.8221883079546E-04
(PID.TID 0000.0001) %MON ke_max                       =   1.5930332432260E-02
(PID.TID 0000.0001) %MON ke_mean                      =   3.1214571810573E-04
(PID.TID 0000.0001) %MON ke_vol                       =   1.3226782436723E+18
(PID.TID 0000.0001) %MON vort_r_min                   =  -5.8595818743625E-07
(PID.TID 0000.0001) %MON vort_r_max                   =   8.0862426195904E-07
(PID.TID 0000.0001) %MON vort_a_mean                  =  -2.5205769416497E-05
(PID.TID 0000.0001) %MON vort_a_sd                    =   7.3401301437799E-05
(PID.TID 0000.0001) %MON vort_p_mean                  =  -3.1758669586522E-05
(PID.TID 0000.0001) %MON vort_p_sd                    =   1.3125912904933E-04
(PID.TID 0000.0001) %MON surfExpan_theta_mean         =   8.1561450868193E-05
(PID.TID 0000.0001) %MON surfExpan_salt_mean          =   3.9638057913587E-06
(PID.TID 0000.0001) // =======================================================
(PID.TID 0000.0001) // End MONITOR dynamic field statistics
(PID.TID 0000.0001) // =======================================================
time,SST,SSS,fu,fv,Q,E-P,i0,i1,a,b =   7.3440E+05  5.6614E-01  3.4563E+01 -3.7742E-02 -6.0072E-02  2.6548E+02  0.0000E+00    12     1  7.8333E-01  2.1667E-01
time,fu0,fu1,fu =   7.3440E+05 -4.5368E-02 -3.5633E-02 -3.7742E-02  7.8333E-01  2.1667E-01
 cg2d: Sum(rhs),rhsMax =  -1.81420850564606E-13  1.05352089710680E+01
(PID.TID 0000.0001)                    cg2d_init_res =    7.78419646014583E-01
(PID.TID 0000.0001)                       cg2d_iters =    24
(PID.TID 0000.0001)                         cg2d_res =    8.31053252155784E-14
(PID.TID 0000.0001) // =======================================================
(PID.TID 0000.0001) // Begin MONITOR dynamic field statistics
(PID.TID 0000.0001) // =======================================================
(PID.TID 0000.0001) %MON time_tsnumber                =                    18
(PID.TID 0000.0001) %MON time_secondsf                =   7.7760000000000E+05
(PID.TID 0000.0001) %MON dynstat_eta_max              =   1.2682928986697E+00
(PID.TID 0000.0001) %MON dynstat_eta_min              =  -1.3239455285751E+00
(PID.TID 0000.0001) %MON dynstat_eta_mean             =   8.2429989844202E-17
(PID.TID 0000.0001) %MON dynstat_eta_sd               =   3.8315591377906E-01
(PID.TID 0000.0001) %MON dynstat_eta_del2             =   2.0036445924685E-02
(PID.TID 0000.0001) %MON dynstat_uvel_max             =   1.8463748835925E-01
(PID.TID 0000.0001) %MON dynstat_uvel_min             =  -1.4757367224271E-01
(PID.TID 0000.0001) %MON dynstat_uvel_mean            =  -1.0120072834446E-02
(PID.TID 0000.0001) %MON dynstat_uvel_sd              =   1.8811088869711E-02
(PID.TID 0000.0001) %MON dynstat_uvel_del2            =   4.7333773572675E-03
(PID.TID 0000.0001) %MON dynstat_vvel_max             =   1.6303094450925E-01
(PID.TID 0000.0001) %MON dynstat_vvel_min             =  -1.4241239671449E-01
(PID.TID 0000.0001) %MON dynstat_vvel_mean            =   3.0750088829382E-03
(PID.TID 0000.0001) %MON dynstat_vvel_sd              =   1.5639969006045E-02
(PID.TID 0000.0001) %MON dynstat_vvel_del2            =   4.9225562291280E-03
(PID.TID 0000.0001) %MON dynstat_wvel_max             =   3.8222622902391E-04
(PID.TID 0000.0001) %MON dynstat_wvel_min             =  -5.0146848433148E-04
(PID.TID 0000.0001) %MON dynstat_wvel_mean            =   5.8988271867962E-22
(PID.TID 0000.0001) %MON dynstat_wvel_sd              =   4.0586442208631E-05
(PID.TID 0000.0001) %MON dynstat_wvel_del2            =   1.6102841661771E-05
(PID.TID 0000.0001) %MON dynstat_theta_max            =   2.9473499848589E+01
(PID.TID 0000.0001) %MON dynstat_theta_min            =  -1.9379241278865E+00
(PID.TID 0000.0001) %MON dynstat_theta_mean           =   3.5946974793865E+00
(PID.TID 0000.0001) %MON dynstat_theta_sd             =   4.3523010094160E+00
(PID.TID 0000.0001) %MON dynstat_theta_del2           =   1.3609174194626E-01
(PID.TID 0000.0001) %MON dynstat_salt_max             =   3.7425735813509E+01
(PID.TID 0000.0001) %MON dynstat_salt_min             =   2.9799457938398E+01
(PID.TID 0000.0001) %MON dynstat_salt_mean            =   3.4716152148632E+01
(PID.TID 0000.0001) %MON dynstat_salt_sd              =   2.9534132500170E-01
(PID.TID 0000.0001) %MON dynstat_salt_del2            =   2.5309663478479E-02
(PID.TID 0000.0001) %MON advcfl_uvel_max              =   3.4101498369909E-02
(PID.TID 0000.0001) %MON advcfl_vvel_max              =   1.5837148908076E-02
(PID.TID 0000.0001) %MON advcfl_wvel_max              =   1.8821404242862E-01
(PID.TID 0000.0001) %MON advcfl_W_hf_max              =   1.5172403566477E-01
(PID.TID 0000.0001) %MON pe_b_mean                    =   1.8785911246920E-04
(PID.TID 0000.0001) %MON ke_max                       =   1.7090661925850E-02
(PID.TID 0000.0001) %MON ke_mean                      =   3.2135230751758E-04
(PID.TID 0000.0001) %MON ke_vol                       =   1.3226782436723E+18
(PID.TID 0000.0001) %MON vort_r_min                   =  -6.1505833352646E-07
(PID.TID 0000.0001) %MON vort_r_max                   =   7.7959667311748E-07
(PID.TID 0000.0001) %MON vort_a_mean                  =  -2.5205769353998E-05
(PID.TID 0000.0001) %MON vort_a_sd                    =   7.3401307861881E-05
(PID.TID 0000.0001) %MON vort_p_mean                  =  -3.1758669507775E-05
(PID.TID 0000.0001) %MON vort_p_sd                    =   1.3125910421000E-04
(PID.TID 0000.0001) %MON surfExpan_theta_mean         =   6.8708508033698E-05
(PID.TID 0000.0001) %MON surfExpan_salt_mean          =   2.8182211728180E-06
(PID.TID 0000.0001) // =======================================================
(PID.TID 0000.0001) // End MONITOR dynamic field statistics
(PID.TID 0000.0001) // =======================================================
(PID.TID 0000.0001)  MDS_WRITE_RL_VEC: irec =  00000004   00066240
(PID.TID 0000.0001)  MDS_WRITE_RL_VEC: irec =  00000004   00066240
(PID.TID 0000.0001)  MDS_WRITE_RL_VEC: irec =  00000004   00066240
(PID.TID 0000.0001)  MDS_WRITE_RL_VEC: irec =  00000004   00066240
(PID.TID 0000.0001)  MDS_WRITE_RL_VEC: irec =  00000004   00066240
(PID.TID 0000.0001)  MDS_WRITE_RL_VEC: irec =  00000004   00066240
(PID.TID 0000.0001)  MDS_WRITE_RL_VEC: irec =  00000004   00066240
(PID.TID 0000.0001)  MDS_WRITE_RL_VEC: irec =  00000004   00066240
(PID.TID 0000.0001)  MDS_WRITE_RL_VEC: irec =  00000004   00066240
(PID.TID 0000.0001)  MDS_WRITE_RL_VEC: irec =  00000004   00066240
(PID.TID 0000.0001)  MDS_WRITE_RL_VEC: irec =  00000004   00066240
(PID.TID 0000.0001)  MDS_WRITE_RL_VEC: irec =  00000004   00004416
(PID.TID 0000.0001)  MDS_WRITE_RL_VEC: irec =  00000004   00066240
(PID.TID 0000.0001)  MDS_WRITE_RL_VEC: irec =  00000004   00004416
(PID.TID 0000.0001)  MDS_WRITE_RL_VEC: irec =  00000004   00004416
(PID.TID 0000.0001)  MDS_WRITE_RL_VEC: irec =  00000004   00004416
(PID.TID 0000.0001)  MDS_WRITE_RL_VEC: irec =  00000004   00004416
(PID.TID 0000.0001)  MDS_WRITE_RL_VEC: irec =  00000004   00004416
(PID.TID 0000.0001)  MDS_WRITE_RL_VEC: irec =  00000004   00004416
(PID.TID 0000.0001)  MDS_WRITE_RL_VEC: irec =  00000004   00004416
(PID.TID 0000.0001)  MDS_WRITE_RL_VEC: irec =  00000004   00004416
(PID.TID 0000.0001)  MDS_WRITE_RL_VEC: irec =  00000004   00004416
(PID.TID 0000.0001)  MDS_WRITE_RL_VEC: irec =  00000004   00004416
(PID.TID 0000.0001)  MDS_WRITE_RL_VEC: irec =  00000004   00004416
(PID.TID 0000.0001)  MDS_WRITE_RL_VEC: irec =  00000004   00004416
(PID.TID 0000.0001)  MDS_WRITE_RL_VEC: irec =  00000004   00004416
(PID.TID 0000.0001)  MDS_WRITE_RL_VEC: irec =  00000004   00004416
(PID.TID 0000.0001)  MDS_WRITE_RL_VEC: irec =  00000004   00004416
(PID.TID 0000.0001)  MDS_WRITE_RL_VEC: irec =  00000004   00004416
(PID.TID 0000.0001)  MDS_WRITE_RL_VEC: irec =  00000004   00004416
(PID.TID 0000.0001)  MDS_WRITE_RL_VEC: irec =  00000004   00004416
time,SST,SSS,fu,fv,Q,E-P,i0,i1,a,b =   7.7760E+05  5.9632E-01  3.4574E+01 -3.7580E-02 -5.9855E-02  2.6550E+02  0.0000E+00    12     1  8.0000E-01  2.0000E-01
time,fu0,fu1,fu =   7.7760E+05 -4.5368E-02 -3.5633E-02 -3.7580E-02  8.0000E-01  2.0000E-01
 cg2d: Sum(rhs),rhsMax =   5.76047889944142E-13  1.02854226332886E+01
(PID.TID 0000.0001)                    cg2d_init_res =    7.83476919431370E-01
(PID.TID 0000.0001)                       cg2d_iters =    25
(PID.TID 0000.0001)                         cg2d_res =    2.89423841294244E-14
(PID.TID 0000.0001) // =======================================================
(PID.TID 0000.0001) // Begin MONITOR dynamic field statistics
(PID.TID 0000.0001) // =======================================================
(PID.TID 0000.0001) %MON time_tsnumber                =                    19
(PID.TID 0000.0001) %MON time_secondsf                =   8.2080000000000E+05
(PID.TID 0000.0001) %MON dynstat_eta_max              =   1.2398174595449E+00
(PID.TID 0000.0001) %MON dynstat_eta_min              =  -1.3183821530426E+00
(PID.TID 0000.0001) %MON dynstat_eta_mean             =  -7.0846894805063E-17
(PID.TID 0000.0001) %MON dynstat_eta_sd               =   3.8722682638950E-01
(PID.TID 0000.0001) %MON dynstat_eta_del2             =   1.9596433461706E-02
(PID.TID 0000.0001) %MON dynstat_uvel_max             =   1.9077797688964E-01
(PID.TID 0000.0001) %MON dynstat_uvel_min             =  -1.4695700606195E-01
(PID.TID 0000.0001) %MON dynstat_uvel_mean            =  -9.9331473157803E-03
(PID.TID 0000.0001) %MON dynstat_uvel_sd              =   1.9377113959396E-02
(PID.TID 0000.0001) %MON dynstat_uvel_del2            =   4.8477814234585E-03
(PID.TID 0000.0001) %MON dynstat_vvel_max             =   1.6383021687988E-01
(PID.TID 0000.0001) %MON dynstat_vvel_min             =  -1.4406034908049E-01
(PID.TID 0000.0001) %MON dynstat_vvel_mean            =   2.8155160038791E-03
(PID.TID 0000.0001) %MON dynstat_vvel_sd              =   1.5664007614983E-02
(PID.TID 0000.0001) %MON dynstat_vvel_del2            =   5.0117912561886E-03
(PID.TID 0000.0001) %MON dynstat_wvel_max             =   3.8248372230435E-04
(PID.TID 0000.0001) %MON dynstat_wvel_min             =  -5.0420800937610E-04
(PID.TID 0000.0001) %MON dynstat_wvel_mean            =  -1.6077045032480E-22
(PID.TID 0000.0001) %MON dynstat_wvel_sd              =   3.9996481745480E-05
(PID.TID 0000.0001) %MON dynstat_wvel_del2            =   1.5933719919110E-05
(PID.TID 0000.0001) %MON dynstat_theta_max            =   2.9456764360606E+01
(PID.TID 0000.0001) %MON dynstat_theta_min            =  -1.9330911314224E+00
(PID.TID 0000.0001) %MON dynstat_theta_mean           =   3.5941849907558E+00
(PID.TID 0000.0001) %MON dynstat_theta_sd             =   4.3498819048621E+00
(PID.TID 0000.0001) %MON dynstat_theta_del2           =   1.3573594938239E-01
(PID.TID 0000.0001) %MON dynstat_salt_max             =   3.7424439547495E+01
(PID.TID 0000.0001) %MON dynstat_salt_min             =   2.9799768784671E+01
(PID.TID 0000.0001) %MON dynstat_salt_mean            =   3.4716139638927E+01
(PID.TID 0000.0001) %MON dynstat_salt_sd              =   2.9528453674836E-01
(PID.TID 0000.0001) %MON dynstat_salt_del2            =   2.5286825518985E-02
(PID.TID 0000.0001) %MON advcfl_uvel_max              =   3.0090570677293E-02
(PID.TID 0000.0001) %MON advcfl_vvel_max              =   1.5914791809489E-02
(PID.TID 0000.0001) %MON advcfl_wvel_max              =   1.8863404682771E-01
(PID.TID 0000.0001) %MON advcfl_W_hf_max              =   1.6361082414500E-01
(PID.TID 0000.0001) %MON pe_b_mean                    =   1.9187220823825E-04
(PID.TID 0000.0001) %MON ke_max                       =   1.8155266442063E-02
(PID.TID 0000.0001) %MON ke_mean                      =   3.2912116540452E-04
(PID.TID 0000.0001) %MON ke_vol                       =   1.3226782436723E+18
(PID.TID 0000.0001) %MON vort_r_min                   =  -6.4060539698544E-07
(PID.TID 0000.0001) %MON vort_r_max                   =   7.3424408046061E-07
(PID.TID 0000.0001) %MON vort_a_mean                  =  -2.5205769286434E-05
(PID.TID 0000.0001) %MON vort_a_sd                    =   7.3401334597838E-05
(PID.TID 0000.0001) %MON vort_p_mean                  =  -3.1758669422646E-05
(PID.TID 0000.0001) %MON vort_p_sd                    =   1.3125915856390E-04
(PID.TID 0000.0001) %MON surfExpan_theta_mean         =   5.6384733655038E-05
(PID.TID 0000.0001) %MON surfExpan_salt_mean          =   1.7477639438453E-06
(PID.TID 0000.0001) // =======================================================
(PID.TID 0000.0001) // End MONITOR dynamic field statistics
(PID.TID 0000.0001) // =======================================================
time,SST,SSS,fu,fv,Q,E-P,i0,i1,a,b =   8.2080E+05  6.2649E-01  3.4586E+01 -3.7418E-02 -5.9638E-02  2.6552E+02  0.0000E+00    12     1  8.1667E-01  1.8333E-01
time,fu0,fu1,fu =   8.2080E+05 -4.5368E-02 -3.5633E-02 -3.7418E-02  8.1667E-01  1.8333E-01
 cg2d: Sum(rhs),rhsMax =  -2.90932208879546E-13  9.89942675036043E+00
(PID.TID 0000.0001)                    cg2d_init_res =    8.00116484606212E-01
(PID.TID 0000.0001)                       cg2d_iters =    25
(PID.TID 0000.0001)                         cg2d_res =    2.72752547860265E-14
(PID.TID 0000.0001) // =======================================================
(PID.TID 0000.0001) // Begin MONITOR dynamic field statistics
(PID.TID 0000.0001) // =======================================================
(PID.TID 0000.0001) %MON time_tsnumber                =                    20
(PID.TID 0000.0001) %MON time_secondsf                =   8.6400000000000E+05
(PID.TID 0000.0001) %MON dynstat_eta_max              =   1.1926923736769E+00
(PID.TID 0000.0001) %MON dynstat_eta_min              =  -1.2768092051012E+00
(PID.TID 0000.0001) %MON dynstat_eta_mean             =  -6.3721930292981E-17
(PID.TID 0000.0001) %MON dynstat_eta_sd               =   3.8980465941079E-01
(PID.TID 0000.0001) %MON dynstat_eta_del2             =   1.9264993299030E-02
(PID.TID 0000.0001) %MON dynstat_uvel_max             =   1.9607684174505E-01
(PID.TID 0000.0001) %MON dynstat_uvel_min             =  -1.5362269427030E-01
(PID.TID 0000.0001) %MON dynstat_uvel_mean            =  -9.6550727848134E-03
(PID.TID 0000.0001) %MON dynstat_uvel_sd              =   1.9863128535566E-02
(PID.TID 0000.0001) %MON dynstat_uvel_del2            =   4.9480477137852E-03
(PID.TID 0000.0001) %MON dynstat_vvel_max             =   1.5990981411105E-01
(PID.TID 0000.0001) %MON dynstat_vvel_min             =  -1.4412949998144E-01
(PID.TID 0000.0001) %MON dynstat_vvel_mean            =   2.6046033280191E-03
(PID.TID 0000.0001) %MON dynstat_vvel_sd              =   1.5711596528651E-02
(PID.TID 0000.0001) %MON dynstat_vvel_del2            =   5.0886232088272E-03
(PID.TID 0000.0001) %MON dynstat_wvel_max             =   3.8105314179453E-04
(PID.TID 0000.0001) %MON dynstat_wvel_min             =  -5.0340447640347E-04
(PID.TID 0000.0001) %MON dynstat_wvel_mean            =  -6.9888141284901E-22
(PID.TID 0000.0001) %MON dynstat_wvel_sd              =   3.9318461465322E-05
(PID.TID 0000.0001) %MON dynstat_wvel_del2            =   1.5713230341129E-05
(PID.TID 0000.0001) %MON dynstat_theta_max            =   2.9453918402037E+01
(PID.TID 0000.0001) %MON dynstat_theta_min            =  -1.9299555986822E+00
(PID.TID 0000.0001) %MON dynstat_theta_mean           =   3.5937981101093E+00
(PID.TID 0000.0001) %MON dynstat_theta_sd             =   4.3478065678656E+00
(PID.TID 0000.0001) %MON dynstat_theta_del2           =   1.3543815402803E-01
(PID.TID 0000.0001) %MON dynstat_salt_max             =   3.7423271958535E+01
(PID.TID 0000.0001) %MON dynstat_salt_min             =   2.9799944615082E+01
(PID.TID 0000.0001) %MON dynstat_salt_mean            =   3.4716137532839E+01
(PID.TID 0000.0001) %MON dynstat_salt_sd              =   2.9523128997683E-01
(PID.TID 0000.0001) %MON dynstat_salt_del2            =   2.5269135849850E-02
(PID.TID 0000.0001) %MON advcfl_uvel_max              =   3.0382304881550E-02
(PID.TID 0000.0001) %MON advcfl_vvel_max              =   1.5533956118348E-02
(PID.TID 0000.0001) %MON advcfl_wvel_max              =   1.8316814029411E-01
(PID.TID 0000.0001) %MON advcfl_W_hf_max              =   1.6675219063115E-01
(PID.TID 0000.0001) %MON pe_b_mean                    =   1.9443536164476E-04
(PID.TID 0000.0001) %MON ke_max                       =   1.9119040349507E-02
(PID.TID 0000.0001) %MON ke_mean                      =   3.3546802331653E-04
(PID.TID 0000.0001) %MON ke_vol                       =   1.3226782436723E+18
(PID.TID 0000.0001) %MON vort_r_min                   =  -6.6243243101589E-07
(PID.TID 0000.0001) %MON vort_r_max                   =   6.7328483863435E-07
(PID.TID 0000.0001) %MON vort_a_mean                  =  -2.5205769219529E-05
(PID.TID 0000.0001) %MON vort_a_sd                    =   7.3401379382282E-05
(PID.TID 0000.0001) %MON vort_p_mean                  =  -3.1758669338346E-05
(PID.TID 0000.0001) %MON vort_p_sd                    =   1.3125927788458E-04
(PID.TID 0000.0001) %MON surfExpan_theta_mean         =   4.4824309809994E-05
(PID.TID 0000.0001) %MON surfExpan_salt_mean          =   7.6963922391981E-07
(PID.TID 0000.0001) // =======================================================
(PID.TID 0000.0001) // End MONITOR dynamic field statistics
(PID.TID 0000.0001) // =======================================================
time,SST,SSS,fu,fv,Q,E-P,i0,i1,a,b =   8.6400E+05  6.5667E-01  3.4598E+01 -3.7255E-02 -5.9422E-02  2.6555E+02  0.0000E+00    12     1  8.3333E-01  1.6667E-01
time,fu0,fu1,fu =   8.6400E+05 -4.5368E-02 -3.5633E-02 -3.7255E-02  8.3333E-01  1.6667E-01
 cg2d: Sum(rhs),rhsMax =   4.38832997717853E-14  1.09313661371492E+01
(PID.TID 0000.0001)                    cg2d_init_res =    7.11714648613837E-01
(PID.TID 0000.0001)                       cg2d_iters =    25
(PID.TID 0000.0001)                         cg2d_res =    3.01288833865242E-14
(PID.TID 0000.0001) // =======================================================
(PID.TID 0000.0001) // Begin MONITOR dynamic field statistics
(PID.TID 0000.0001) // =======================================================
(PID.TID 0000.0001) %MON time_tsnumber                =                    21
(PID.TID 0000.0001) %MON time_secondsf                =   9.0720000000000E+05
(PID.TID 0000.0001) %MON dynstat_eta_max              =   1.3007185096294E+00
(PID.TID 0000.0001) %MON dynstat_eta_min              =  -1.2131735889494E+00
(PID.TID 0000.0001) %MON dynstat_eta_mean             =  -3.5267507947030E-17
(PID.TID 0000.0001) %MON dynstat_eta_sd               =   3.9112962606395E-01
(PID.TID 0000.0001) %MON dynstat_eta_del2             =   1.9078475057461E-02
(PID.TID 0000.0001) %MON dynstat_uvel_max             =   2.0043960018304E-01
(PID.TID 0000.0001) %MON dynstat_uvel_min             =  -1.6097227218510E-01
(PID.TID 0000.0001) %MON dynstat_uvel_mean            =  -9.3011972338433E-03
(PID.TID 0000.0001) %MON dynstat_uvel_sd              =   2.0272777438528E-02
(PID.TID 0000.0001) %MON dynstat_uvel_del2            =   5.0362132584503E-03
(PID.TID 0000.0001) %MON dynstat_vvel_max             =   1.5123383417139E-01
(PID.TID 0000.0001) %MON dynstat_vvel_min             =  -1.4339181153237E-01
(PID.TID 0000.0001) %MON dynstat_vvel_mean            =   2.4483208797786E-03
(PID.TID 0000.0001) %MON dynstat_vvel_sd              =   1.5774381873595E-02
(PID.TID 0000.0001) %MON dynstat_vvel_del2            =   5.1546201598622E-03
(PID.TID 0000.0001) %MON dynstat_wvel_max             =   3.7793541857154E-04
(PID.TID 0000.0001) %MON dynstat_wvel_min             =  -4.9896312343435E-04
(PID.TID 0000.0001) %MON dynstat_wvel_mean            =   5.1308974197111E-22
(PID.TID 0000.0001) %MON dynstat_wvel_sd              =   3.8574237200608E-05
(PID.TID 0000.0001) %MON dynstat_wvel_del2            =   1.5451793524062E-05
(PID.TID 0000.0001) %MON dynstat_theta_max            =   2.9455893679424E+01
(PID.TID 0000.0001) %MON dynstat_theta_min            =  -1.9286646652717E+00
(PID.TID 0000.0001) %MON dynstat_theta_mean           =   3.5935247190450E+00
(PID.TID 0000.0001) %MON dynstat_theta_sd             =   4.3460784800862E+00
(PID.TID 0000.0001) %MON dynstat_theta_del2           =   1.3521094511784E-01
(PID.TID 0000.0001) %MON dynstat_salt_max             =   3.7422184122342E+01
(PID.TID 0000.0001) %MON dynstat_salt_min             =   2.9800023117276E+01
(PID.TID 0000.0001) %MON dynstat_salt_mean            =   3.4716144528648E+01
(PID.TID 0000.0001) %MON dynstat_salt_sd              =   2.9518124436975E-01
(PID.TID 0000.0001) %MON dynstat_salt_del2            =   2.5255350607620E-02
(PID.TID 0000.0001) %MON advcfl_uvel_max              =   3.0395924502627E-02
(PID.TID 0000.0001) %MON advcfl_vvel_max              =   1.4691154240204E-02
(PID.TID 0000.0001) %MON advcfl_wvel_max              =   1.7166046488234E-01
(PID.TID 0000.0001) %MON advcfl_W_hf_max              =   1.6291633775221E-01
(PID.TID 0000.0001) %MON pe_b_mean                    =   1.9575940022036E-04
(PID.TID 0000.0001) %MON ke_max                       =   1.9980507970040E-02
(PID.TID 0000.0001) %MON ke_mean                      =   3.4042306047158E-04
(PID.TID 0000.0001) %MON ke_vol                       =   1.3226782436723E+18
(PID.TID 0000.0001) %MON vort_r_min                   =  -6.8055437821061E-07
(PID.TID 0000.0001) %MON vort_r_max                   =   6.0920329030776E-07
(PID.TID 0000.0001) %MON vort_a_mean                  =  -2.5205769158280E-05
(PID.TID 0000.0001) %MON vort_a_sd                    =   7.3401439680318E-05
(PID.TID 0000.0001) %MON vort_p_mean                  =  -3.1758669261174E-05
(PID.TID 0000.0001) %MON vort_p_sd                    =   1.3125944734042E-04
(PID.TID 0000.0001) %MON surfExpan_theta_mean         =   3.4216927159625E-05
(PID.TID 0000.0001) %MON surfExpan_salt_mean          =  -1.0379677125782E-07
(PID.TID 0000.0001) // =======================================================
(PID.TID 0000.0001) // End MONITOR dynamic field statistics
(PID.TID 0000.0001) // =======================================================
time,SST,SSS,fu,fv,Q,E-P,i0,i1,a,b =   9.0720E+05  6.8684E-01  3.4609E+01 -3.7093E-02 -5.9205E-02  2.6557E+02  0.0000E+00    12     1  8.5000E-01  1.5000E-01
time,fu0,fu1,fu =   9.0720E+05 -4.5368E-02 -3.5633E-02 -3.7093E-02  8.5000E-01  1.5000E-01
 cg2d: Sum(rhs),rhsMax =   2.58659413332474E-13  1.18621214870371E+01
(PID.TID 0000.0001)                    cg2d_init_res =    6.43345636412962E-01
(PID.TID 0000.0001)                       cg2d_iters =    25
(PID.TID 0000.0001)                         cg2d_res =    3.11563547955270E-14
(PID.TID 0000.0001) // =======================================================
(PID.TID 0000.0001) // Begin MONITOR dynamic field statistics
(PID.TID 0000.0001) // =======================================================
(PID.TID 0000.0001) %MON time_tsnumber                =                    22
(PID.TID 0000.0001) %MON time_secondsf                =   9.5040000000000E+05
(PID.TID 0000.0001) %MON dynstat_eta_max              =   1.4078293745500E+00
(PID.TID 0000.0001) %MON dynstat_eta_min              =  -1.1673190017240E+00
(PID.TID 0000.0001) %MON dynstat_eta_mean             =  -5.6990763172314E-17
(PID.TID 0000.0001) %MON dynstat_eta_sd               =   3.9143741017082E-01
(PID.TID 0000.0001) %MON dynstat_eta_del2             =   1.8988767193043E-02
(PID.TID 0000.0001) %MON dynstat_uvel_max             =   2.0377215648837E-01
(PID.TID 0000.0001) %MON dynstat_uvel_min             =  -1.7728210359537E-01
(PID.TID 0000.0001) %MON dynstat_uvel_mean            =  -8.8873334702372E-03
(PID.TID 0000.0001) %MON dynstat_uvel_sd              =   2.0608893092293E-02
(PID.TID 0000.0001) %MON dynstat_uvel_del2            =   5.1117710352200E-03
(PID.TID 0000.0001) %MON dynstat_vvel_max             =   1.4205322943888E-01
(PID.TID 0000.0001) %MON dynstat_vvel_min             =  -1.4861279367558E-01
(PID.TID 0000.0001) %MON dynstat_vvel_mean            =   2.3492857882519E-03
(PID.TID 0000.0001) %MON dynstat_vvel_sd              =   1.5845232838109E-02
(PID.TID 0000.0001) %MON dynstat_vvel_del2            =   5.2089699759138E-03
(PID.TID 0000.0001) %MON dynstat_wvel_max             =   3.7317468569714E-04
(PID.TID 0000.0001) %MON dynstat_wvel_min             =  -4.9079444828366E-04
(PID.TID 0000.0001) %MON dynstat_wvel_mean            =  -3.8391207780143E-22
(PID.TID 0000.0001) %MON dynstat_wvel_sd              =   3.7785392170279E-05
(PID.TID 0000.0001) %MON dynstat_wvel_del2            =   1.5156511166426E-05
(PID.TID 0000.0001) %MON dynstat_theta_max            =   2.9458020708775E+01
(PID.TID 0000.0001) %MON dynstat_theta_min            =  -1.9289742433015E+00
(PID.TID 0000.0001) %MON dynstat_theta_mean           =   3.5933513080732E+00
(PID.TID 0000.0001) %MON dynstat_theta_sd             =   4.3446935900065E+00
(PID.TID 0000.0001) %MON dynstat_theta_del2           =   1.3504353276591E-01
(PID.TID 0000.0001) %MON dynstat_salt_max             =   3.7421141649594E+01
(PID.TID 0000.0001) %MON dynstat_salt_min             =   2.9800047031404E+01
(PID.TID 0000.0001) %MON dynstat_salt_mean            =   3.4716159223156E+01
(PID.TID 0000.0001) %MON dynstat_salt_sd              =   2.9513361133203E-01
(PID.TID 0000.0001) %MON dynstat_salt_del2            =   2.5243136607606E-02
(PID.TID 0000.0001) %MON advcfl_uvel_max              =   3.0352356230899E-02
(PID.TID 0000.0001) %MON advcfl_vvel_max              =   1.4436541174254E-02
(PID.TID 0000.0001) %MON advcfl_wvel_max              =   1.5423964548557E-01
(PID.TID 0000.0001) %MON advcfl_W_hf_max              =   1.4371096603437E-01
(PID.TID 0000.0001) %MON pe_b_mean                    =   1.9606761179254E-04
(PID.TID 0000.0001) %MON ke_max                       =   2.0740359795880E-02
(PID.TID 0000.0001) %MON ke_mean                      =   3.4403835280682E-04
(PID.TID 0000.0001) %MON ke_vol                       =   1.3226782436723E+18
(PID.TID 0000.0001) %MON vort_r_min                   =  -6.9516817015281E-07
(PID.TID 0000.0001) %MON vort_r_max                   =   6.2511341284631E-07
(PID.TID 0000.0001) %MON vort_a_mean                  =  -2.5205769106625E-05
(PID.TID 0000.0001) %MON vort_a_sd                    =   7.3401512819527E-05
(PID.TID 0000.0001) %MON vort_p_mean                  =  -3.1758669196090E-05
(PID.TID 0000.0001) %MON vort_p_sd                    =   1.3125965271640E-04
(PID.TID 0000.0001) %MON surfExpan_theta_mean         =   2.4721241929295E-05
(PID.TID 0000.0001) %MON surfExpan_salt_mean          =  -8.6046325819699E-07
(PID.TID 0000.0001) // =======================================================
(PID.TID 0000.0001) // End MONITOR dynamic field statistics
(PID.TID 0000.0001) // =======================================================
time,SST,SSS,fu,fv,Q,E-P,i0,i1,a,b =   9.5040E+05  7.1702E-01  3.4621E+01 -3.6931E-02 -5.8989E-02  2.6559E+02  0.0000E+00    12     1  8.6667E-01  1.3333E-01
time,fu0,fu1,fu =   9.5040E+05 -4.5368E-02 -3.5633E-02 -3.6931E-02  8.6667E-01  1.3333E-01
 cg2d: Sum(rhs),rhsMax =  -1.29587313102419E-13  1.26581340407874E+01
(PID.TID 0000.0001)                    cg2d_init_res =    5.90613181043138E-01
(PID.TID 0000.0001)                       cg2d_iters =    25
(PID.TID 0000.0001)                         cg2d_res =    3.12549682797109E-14
(PID.TID 0000.0001) // =======================================================
(PID.TID 0000.0001) // Begin MONITOR dynamic field statistics
(PID.TID 0000.0001) // =======================================================
(PID.TID 0000.0001) %MON time_tsnumber                =                    23
(PID.TID 0000.0001) %MON time_secondsf                =   9.9360000000000E+05
(PID.TID 0000.0001) %MON dynstat_eta_max              =   1.4990152776624E+00
(PID.TID 0000.0001) %MON dynstat_eta_min              =  -1.1212182153581E+00
(PID.TID 0000.0001) %MON dynstat_eta_mean             =   1.2007595278021E-16
(PID.TID 0000.0001) %MON dynstat_eta_sd               =   3.9094962564936E-01
(PID.TID 0000.0001) %MON dynstat_eta_del2             =   1.8869910060845E-02
(PID.TID 0000.0001) %MON dynstat_uvel_max             =   2.0637728187485E-01
(PID.TID 0000.0001) %MON dynstat_uvel_min             =  -1.9118188969745E-01
(PID.TID 0000.0001) %MON dynstat_uvel_mean            =  -8.4291259343145E-03
(PID.TID 0000.0001) %MON dynstat_uvel_sd              =   2.0873480679271E-02
(PID.TID 0000.0001) %MON dynstat_uvel_del2            =   5.1778079790434E-03
(PID.TID 0000.0001) %MON dynstat_vvel_max             =   1.4153738572196E-01
(PID.TID 0000.0001) %MON dynstat_vvel_min             =  -1.5038273323591E-01
(PID.TID 0000.0001) %MON dynstat_vvel_mean            =   2.3069934654555E-03
(PID.TID 0000.0001) %MON dynstat_vvel_sd              =   1.5919505757107E-02
(PID.TID 0000.0001) %MON dynstat_vvel_del2            =   5.2514908172879E-03
(PID.TID 0000.0001) %MON dynstat_wvel_max             =   3.8153212220034E-04
(PID.TID 0000.0001) %MON dynstat_wvel_min             =  -4.7891208259093E-04
(PID.TID 0000.0001) %MON dynstat_wvel_mean            =  -1.6669168472511E-22
(PID.TID 0000.0001) %MON dynstat_wvel_sd              =   3.6974333254650E-05
(PID.TID 0000.0001) %MON dynstat_wvel_del2            =   1.4843029651771E-05
(PID.TID 0000.0001) %MON dynstat_theta_max            =   2.9460230035954E+01
(PID.TID 0000.0001) %MON dynstat_theta_min            =  -1.9295861437293E+00
(PID.TID 0000.0001) %MON dynstat_theta_mean           =   3.5932632477434E+00
(PID.TID 0000.0001) %MON dynstat_theta_sd             =   4.3436396528247E+00
(PID.TID 0000.0001) %MON dynstat_theta_del2           =   1.3491625355555E-01
(PID.TID 0000.0001) %MON dynstat_salt_max             =   3.7420124825868E+01
(PID.TID 0000.0001) %MON dynstat_salt_min             =   2.9800078859256E+01
(PID.TID 0000.0001) %MON dynstat_salt_mean            =   3.4716180095321E+01
(PID.TID 0000.0001) %MON dynstat_salt_sd              =   2.9508745912088E-01
(PID.TID 0000.0001) %MON dynstat_salt_del2            =   2.5231982411456E-02
(PID.TID 0000.0001) %MON advcfl_uvel_max              =   3.0999693141187E-02
(PID.TID 0000.0001) %MON advcfl_vvel_max              =   1.4608476609331E-02
(PID.TID 0000.0001) %MON advcfl_wvel_max              =   1.6401152905310E-01
(PID.TID 0000.0001) %MON advcfl_W_hf_max              =   1.5007860028413E-01
(PID.TID 0000.0001) %MON pe_b_mean                    =   1.9557926216508E-04
(PID.TID 0000.0001) %MON ke_max                       =   2.1399888087943E-02
(PID.TID 0000.0001) %MON ke_mean                      =   3.4639077795792E-04
(PID.TID 0000.0001) %MON ke_vol                       =   1.3226782436723E+18
(PID.TID 0000.0001) %MON vort_r_min                   =  -7.0752766181439E-07
(PID.TID 0000.0001) %MON vort_r_max                   =   6.4154204069529E-07
(PID.TID 0000.0001) %MON vort_a_mean                  =  -2.5205769067269E-05
(PID.TID 0000.0001) %MON vort_a_sd                    =   7.3401596100284E-05
(PID.TID 0000.0001) %MON vort_p_mean                  =  -3.1758669146502E-05
(PID.TID 0000.0001) %MON vort_p_sd                    =   1.3125988124040E-04
(PID.TID 0000.0001) %MON surfExpan_theta_mean         =   1.6457098967127E-05
(PID.TID 0000.0001) %MON surfExpan_salt_mean          =  -1.4890557175794E-06
(PID.TID 0000.0001) // =======================================================
(PID.TID 0000.0001) // End MONITOR dynamic field statistics
(PID.TID 0000.0001) // =======================================================
time,SST,SSS,fu,fv,Q,E-P,i0,i1,a,b =   9.9360E+05  7.4719E-01  3.4633E+01 -3.6769E-02 -5.8772E-02  2.6561E+02  0.0000E+00    12     1  8.8333E-01  1.1667E-01
time,fu0,fu1,fu =   9.9360E+05 -4.5368E-02 -3.5633E-02 -3.6769E-02  8.8333E-01  1.1667E-01
 cg2d: Sum(rhs),rhsMax =  -9.83726988756928E-14  1.32897167539259E+01
(PID.TID 0000.0001)                    cg2d_init_res =    5.51067954395814E-01
(PID.TID 0000.0001)                       cg2d_iters =    25
(PID.TID 0000.0001)                         cg2d_res =    3.06771674434382E-14
(PID.TID 0000.0001) // =======================================================
(PID.TID 0000.0001) // Begin MONITOR dynamic field statistics
(PID.TID 0000.0001) // =======================================================
(PID.TID 0000.0001) %MON time_tsnumber                =                    24
(PID.TID 0000.0001) %MON time_secondsf                =   1.0368000000000E+06
(PID.TID 0000.0001) %MON dynstat_eta_max              =   1.5708985675430E+00
(PID.TID 0000.0001) %MON dynstat_eta_min              =  -1.1420600707622E+00
(PID.TID 0000.0001) %MON dynstat_eta_mean             =   6.0306855181080E-17
(PID.TID 0000.0001) %MON dynstat_eta_sd               =   3.8986953769990E-01
(PID.TID 0000.0001) %MON dynstat_eta_del2             =   1.8730858682241E-02
(PID.TID 0000.0001) %MON dynstat_uvel_max             =   2.0822867362538E-01
(PID.TID 0000.0001) %MON dynstat_uvel_min             =  -2.0212690731165E-01
(PID.TID 0000.0001) %MON dynstat_uvel_mean            =  -7.9415541173978E-03
(PID.TID 0000.0001) %MON dynstat_uvel_sd              =   2.1067944101261E-02
(PID.TID 0000.0001) %MON dynstat_uvel_del2            =   5.2395421955427E-03
(PID.TID 0000.0001) %MON dynstat_vvel_max             =   1.4447396810736E-01
(PID.TID 0000.0001) %MON dynstat_vvel_min             =  -1.5048455672191E-01
(PID.TID 0000.0001) %MON dynstat_vvel_mean            =   2.3182389561178E-03
(PID.TID 0000.0001) %MON dynstat_vvel_sd              =   1.5995239558165E-02
(PID.TID 0000.0001) %MON dynstat_vvel_del2            =   5.2845742602794E-03
(PID.TID 0000.0001) %MON dynstat_wvel_max             =   3.9328218271139E-04
(PID.TID 0000.0001) %MON dynstat_wvel_min             =  -4.6349295287166E-04
(PID.TID 0000.0001) %MON dynstat_wvel_mean            =   8.5332882663502E-22
(PID.TID 0000.0001) %MON dynstat_wvel_sd              =   3.6165376138359E-05
(PID.TID 0000.0001) %MON dynstat_wvel_del2            =   1.4520925994544E-05
(PID.TID 0000.0001) %MON dynstat_theta_max            =   2.9462359185951E+01
(PID.TID 0000.0001) %MON dynstat_theta_min            =  -1.9307204069063E+00
(PID.TID 0000.0001) %MON dynstat_theta_mean           =   3.5932453547613E+00
(PID.TID 0000.0001) %MON dynstat_theta_sd             =   4.3428970602611E+00
(PID.TID 0000.0001) %MON dynstat_theta_del2           =   1.3481098350746E-01
(PID.TID 0000.0001) %MON dynstat_salt_max             =   3.7419116058254E+01
(PID.TID 0000.0001) %MON dynstat_salt_min             =   2.9800132740454E+01
(PID.TID 0000.0001) %MON dynstat_salt_mean            =   3.4716205534733E+01
(PID.TID 0000.0001) %MON dynstat_salt_sd              =   2.9504176550462E-01
(PID.TID 0000.0001) %MON dynstat_salt_del2            =   2.5222385155510E-02
(PID.TID 0000.0001) %MON advcfl_uvel_max              =   3.1482617495557E-02
(PID.TID 0000.0001) %MON advcfl_vvel_max              =   1.4618367944470E-02
(PID.TID 0000.0001) %MON advcfl_wvel_max              =   1.7731656833183E-01
(PID.TID 0000.0001) %MON advcfl_W_hf_max              =   1.5433995042751E-01
(PID.TID 0000.0001) %MON pe_b_mean                    =   1.9450008987762E-04
(PID.TID 0000.0001) %MON ke_max                       =   2.1959509443020E-02
(PID.TID 0000.0001) %MON ke_mean                      =   3.4757837485720E-04
(PID.TID 0000.0001) %MON ke_vol                       =   1.3226782436723E+18
(PID.TID 0000.0001) %MON vort_r_min                   =  -7.2335580840050E-07
(PID.TID 0000.0001) %MON vort_r_max                   =   6.5322093186332E-07
(PID.TID 0000.0001) %MON vort_a_mean                  =  -2.5205769041693E-05
(PID.TID 0000.0001) %MON vort_a_sd                    =   7.3401686882747E-05
(PID.TID 0000.0001) %MON vort_p_mean                  =  -3.1758669114278E-05
(PID.TID 0000.0001) %MON vort_p_sd                    =   1.3126012209939E-04
(PID.TID 0000.0001) %MON surfExpan_theta_mean         =   9.4954667794714E-06
(PID.TID 0000.0001) %MON surfExpan_salt_mean          =  -1.9813449689988E-06
(PID.TID 0000.0001) // =======================================================
(PID.TID 0000.0001) // End MONITOR dynamic field statistics
(PID.TID 0000.0001) // =======================================================
(PID.TID 0000.0001)  MDS_WRITE_RL_VEC: irec =  00000005   00066240
(PID.TID 0000.0001)  MDS_WRITE_RL_VEC: irec =  00000005   00066240
(PID.TID 0000.0001)  MDS_WRITE_RL_VEC: irec =  00000005   00066240
(PID.TID 0000.0001)  MDS_WRITE_RL_VEC: irec =  00000005   00066240
(PID.TID 0000.0001)  MDS_WRITE_RL_VEC: irec =  00000005   00066240
(PID.TID 0000.0001)  MDS_WRITE_RL_VEC: irec =  00000005   00066240
(PID.TID 0000.0001)  MDS_WRITE_RL_VEC: irec =  00000005   00066240
(PID.TID 0000.0001)  MDS_WRITE_RL_VEC: irec =  00000005   00066240
(PID.TID 0000.0001)  MDS_WRITE_RL_VEC: irec =  00000005   00066240
(PID.TID 0000.0001)  MDS_WRITE_RL_VEC: irec =  00000005   00066240
(PID.TID 0000.0001)  MDS_WRITE_RL_VEC: irec =  00000005   00066240
(PID.TID 0000.0001)  MDS_WRITE_RL_VEC: irec =  00000005   00004416
(PID.TID 0000.0001)  MDS_WRITE_RL_VEC: irec =  00000005   00066240
(PID.TID 0000.0001)  MDS_WRITE_RL_VEC: irec =  00000005   00004416
(PID.TID 0000.0001)  MDS_WRITE_RL_VEC: irec =  00000005   00004416
(PID.TID 0000.0001)  MDS_WRITE_RL_VEC: irec =  00000005   00004416
(PID.TID 0000.0001)  MDS_WRITE_RL_VEC: irec =  00000005   00004416
(PID.TID 0000.0001)  MDS_WRITE_RL_VEC: irec =  00000005   00004416
(PID.TID 0000.0001)  MDS_WRITE_RL_VEC: irec =  00000005   00004416
(PID.TID 0000.0001)  MDS_WRITE_RL_VEC: irec =  00000005   00004416
(PID.TID 0000.0001)  MDS_WRITE_RL_VEC: irec =  00000005   00004416
(PID.TID 0000.0001)  MDS_WRITE_RL_VEC: irec =  00000005   00004416
(PID.TID 0000.0001)  MDS_WRITE_RL_VEC: irec =  00000005   00004416
(PID.TID 0000.0001)  MDS_WRITE_RL_VEC: irec =  00000005   00004416
(PID.TID 0000.0001)  MDS_WRITE_RL_VEC: irec =  00000005   00004416
(PID.TID 0000.0001)  MDS_WRITE_RL_VEC: irec =  00000005   00004416
(PID.TID 0000.0001)  MDS_WRITE_RL_VEC: irec =  00000005   00004416
(PID.TID 0000.0001)  MDS_WRITE_RL_VEC: irec =  00000005   00004416
(PID.TID 0000.0001)  MDS_WRITE_RL_VEC: irec =  00000005   00004416
(PID.TID 0000.0001)  MDS_WRITE_RL_VEC: irec =  00000005   00004416
(PID.TID 0000.0001)  MDS_WRITE_RL_VEC: irec =  00000005   00004416
time,SST,SSS,fu,fv,Q,E-P,i0,i1,a,b =   1.0368E+06  7.7737E-01  3.4644E+01 -3.6606E-02 -5.8556E-02  2.6564E+02  0.0000E+00    12     1  9.0000E-01  1.0000E-01
time,fu0,fu1,fu =   1.0368E+06 -4.5368E-02 -3.5633E-02 -3.6606E-02  9.0000E-01  1.0000E-01
 cg2d: Sum(rhs),rhsMax =  -4.33333924299006E-15  1.37323322818602E+01
(PID.TID 0000.0001)                    cg2d_init_res =    5.23673458799531E-01
(PID.TID 0000.0001)                       cg2d_iters =    25
(PID.TID 0000.0001)                         cg2d_res =    2.95860278283742E-14
(PID.TID 0000.0001) // =======================================================
(PID.TID 0000.0001) // Begin MONITOR dynamic field statistics
(PID.TID 0000.0001) // =======================================================
(PID.TID 0000.0001) %MON time_tsnumber                =                    25
(PID.TID 0000.0001) %MON time_secondsf                =   1.0800000000000E+06
(PID.TID 0000.0001) %MON dynstat_eta_max              =   1.6206954058692E+00
(PID.TID 0000.0001) %MON dynstat_eta_min              =  -1.1413636865800E+00
(PID.TID 0000.0001) %MON dynstat_eta_mean             =   1.4480658304190E-16
(PID.TID 0000.0001) %MON dynstat_eta_sd               =   3.8838352430343E-01
(PID.TID 0000.0001) %MON dynstat_eta_del2             =   1.8609378459954E-02
(PID.TID 0000.0001) %MON dynstat_uvel_max             =   2.0883203529732E-01
(PID.TID 0000.0001) %MON dynstat_uvel_min             =  -2.0967224332388E-01
(PID.TID 0000.0001) %MON dynstat_uvel_mean            =  -7.4385667279253E-03
(PID.TID 0000.0001) %MON dynstat_uvel_sd              =   2.1193451528852E-02
(PID.TID 0000.0001) %MON dynstat_uvel_del2            =   5.2964265260854E-03
(PID.TID 0000.0001) %MON dynstat_vvel_max             =   1.4775321100957E-01
(PID.TID 0000.0001) %MON dynstat_vvel_min             =  -1.4919193507854E-01
(PID.TID 0000.0001) %MON dynstat_vvel_mean            =   2.3775905441309E-03
(PID.TID 0000.0001) %MON dynstat_vvel_sd              =   1.6072456156609E-02
(PID.TID 0000.0001) %MON dynstat_vvel_del2            =   5.3061394054827E-03
(PID.TID 0000.0001) %MON dynstat_wvel_max             =   4.0210226082905E-04
(PID.TID 0000.0001) %MON dynstat_wvel_min             =  -4.4488448756471E-04
(PID.TID 0000.0001) %MON dynstat_wvel_mean            =  -1.2861449495490E-21
(PID.TID 0000.0001) %MON dynstat_wvel_sd              =   3.5384656961415E-05
(PID.TID 0000.0001) %MON dynstat_wvel_del2            =   1.4199683692324E-05
(PID.TID 0000.0001) %MON dynstat_theta_max            =   2.9464237239481E+01
(PID.TID 0000.0001) %MON dynstat_theta_min            =  -1.9322978480500E+00
(PID.TID 0000.0001) %MON dynstat_theta_mean           =   3.5932824452332E+00
(PID.TID 0000.0001) %MON dynstat_theta_sd             =   4.3424412288803E+00
(PID.TID 0000.0001) %MON dynstat_theta_del2           =   1.3471604998180E-01
(PID.TID 0000.0001) %MON dynstat_salt_max             =   3.7418113630226E+01
(PID.TID 0000.0001) %MON dynstat_salt_min             =   2.9800230596692E+01
(PID.TID 0000.0001) %MON dynstat_salt_mean            =   3.4716233899180E+01
(PID.TID 0000.0001) %MON dynstat_salt_sd              =   2.9499567911686E-01
(PID.TID 0000.0001) %MON dynstat_salt_del2            =   2.5209762575097E-02
(PID.TID 0000.0001) %MON advcfl_uvel_max              =   3.1802366989447E-02
(PID.TID 0000.0001) %MON advcfl_vvel_max              =   1.4492800117397E-02
(PID.TID 0000.0001) %MON advcfl_wvel_max              =   1.8416252689535E-01
(PID.TID 0000.0001) %MON advcfl_W_hf_max              =   1.4682937788565E-01
(PID.TID 0000.0001) %MON pe_b_mean                    =   1.9302021580004E-04
(PID.TID 0000.0001) %MON ke_max                       =   2.2417568866075E-02
(PID.TID 0000.0001) %MON ke_mean                      =   3.4771031036421E-04
(PID.TID 0000.0001) %MON ke_vol                       =   1.3226782436723E+18
(PID.TID 0000.0001) %MON vort_r_min                   =  -7.3511385354753E-07
(PID.TID 0000.0001) %MON vort_r_max                   =   6.5969945750390E-07
(PID.TID 0000.0001) %MON vort_a_mean                  =  -2.5205769029989E-05
(PID.TID 0000.0001) %MON vort_a_sd                    =   7.3401782654424E-05
(PID.TID 0000.0001) %MON vort_p_mean                  =  -3.1758669099530E-05
(PID.TID 0000.0001) %MON vort_p_sd                    =   1.3126036666172E-04
(PID.TID 0000.0001) %MON surfExpan_theta_mean         =   3.8663411657295E-06
(PID.TID 0000.0001) %MON surfExpan_salt_mean          =  -2.3304503585159E-06
(PID.TID 0000.0001) // =======================================================
(PID.TID 0000.0001) // End MONITOR dynamic field statistics
(PID.TID 0000.0001) // =======================================================
time,SST,SSS,fu,fv,Q,E-P,i0,i1,a,b =   1.0800E+06  8.0755E-01  3.4656E+01 -3.6444E-02 -5.8339E-02  2.6566E+02  0.0000E+00    12     1  9.1667E-01  8.3333E-02
time,fu0,fu1,fu =   1.0800E+06 -4.5368E-02 -3.5633E-02 -3.6444E-02  9.1667E-01  8.3333E-02
 cg2d: Sum(rhs),rhsMax =  -1.08281439370472E-14  1.39675819284171E+01
(PID.TID 0000.0001)                    cg2d_init_res =    5.08227457210710E-01
(PID.TID 0000.0001)                       cg2d_iters =    25
(PID.TID 0000.0001)                         cg2d_res =    2.81794981582881E-14
(PID.TID 0000.0001) // =======================================================
(PID.TID 0000.0001) // Begin MONITOR dynamic field statistics
(PID.TID 0000.0001) // =======================================================
(PID.TID 0000.0001) %MON time_tsnumber                =                    26
(PID.TID 0000.0001) %MON time_secondsf                =   1.1232000000000E+06
(PID.TID 0000.0001) %MON dynstat_eta_max              =   1.6463284432004E+00
(PID.TID 0000.0001) %MON dynstat_eta_min              =  -1.1206677447680E+00
(PID.TID 0000.0001) %MON dynstat_eta_mean             =   1.0991767600705E-17
(PID.TID 0000.0001) %MON dynstat_eta_sd               =   3.8666660479413E-01
(PID.TID 0000.0001) %MON dynstat_eta_del2             =   1.8470177237523E-02
(PID.TID 0000.0001) %MON dynstat_uvel_max             =   2.0815515548290E-01
(PID.TID 0000.0001) %MON dynstat_uvel_min             =  -2.1349129929429E-01
(PID.TID 0000.0001) %MON dynstat_uvel_mean            =  -6.9328153624112E-03
(PID.TID 0000.0001) %MON dynstat_uvel_sd              =   2.1251344660103E-02
(PID.TID 0000.0001) %MON dynstat_uvel_del2            =   5.3509098218667E-03
(PID.TID 0000.0001) %MON dynstat_vvel_max             =   1.5049912710369E-01
(PID.TID 0000.0001) %MON dynstat_vvel_min             =  -1.4552409790499E-01
(PID.TID 0000.0001) %MON dynstat_vvel_mean            =   2.4778899243094E-03
(PID.TID 0000.0001) %MON dynstat_vvel_sd              =   1.6151929552072E-02
(PID.TID 0000.0001) %MON dynstat_vvel_del2            =   5.3184973358759E-03
(PID.TID 0000.0001) %MON dynstat_wvel_max             =   4.0802413300803E-04
(PID.TID 0000.0001) %MON dynstat_wvel_min             =  -4.2357650040444E-04
(PID.TID 0000.0001) %MON dynstat_wvel_mean            =  -8.2498173546434E-22
(PID.TID 0000.0001) %MON dynstat_wvel_sd              =   3.4658048330447E-05
(PID.TID 0000.0001) %MON dynstat_wvel_del2            =   1.3887631476220E-05
(PID.TID 0000.0001) %MON dynstat_theta_max            =   2.9465724823899E+01
(PID.TID 0000.0001) %MON dynstat_theta_min            =  -1.9341599479398E+00
(PID.TID 0000.0001) %MON dynstat_theta_mean           =   3.5933597734438E+00
(PID.TID 0000.0001) %MON dynstat_theta_sd             =   4.3422427064322E+00
(PID.TID 0000.0001) %MON dynstat_theta_del2           =   1.3463317379304E-01
(PID.TID 0000.0001) %MON dynstat_salt_max             =   3.7417117798704E+01
(PID.TID 0000.0001) %MON dynstat_salt_min             =   2.9800388647919E+01
(PID.TID 0000.0001) %MON dynstat_salt_mean            =   3.4716263528115E+01
(PID.TID 0000.0001) %MON dynstat_salt_sd              =   2.9494817728963E-01
(PID.TID 0000.0001) %MON dynstat_salt_del2            =   2.5195484580808E-02
(PID.TID 0000.0001) %MON advcfl_uvel_max              =   3.1978595851980E-02
(PID.TID 0000.0001) %MON advcfl_vvel_max              =   1.4619783340219E-02
(PID.TID 0000.0001) %MON advcfl_wvel_max              =   1.8404549358280E-01
(PID.TID 0000.0001) %MON advcfl_W_hf_max              =   1.3949091178425E-01
(PID.TID 0000.0001) %MON pe_b_mean                    =   1.9131742643672E-04
(PID.TID 0000.0001) %MON ke_max                       =   2.2769619050057E-02
(PID.TID 0000.0001) %MON ke_mean                      =   3.4689293533602E-04
(PID.TID 0000.0001) %MON ke_vol                       =   1.3226782436723E+18
(PID.TID 0000.0001) %MON vort_r_min                   =  -7.4277715257904E-07
(PID.TID 0000.0001) %MON vort_r_max                   =   6.6110126046834E-07
(PID.TID 0000.0001) %MON vort_a_mean                  =  -2.5205769031339E-05
(PID.TID 0000.0001) %MON vort_a_sd                    =   7.3401881074856E-05
(PID.TID 0000.0001) %MON vort_p_mean                  =  -3.1758669101232E-05
(PID.TID 0000.0001) %MON vort_p_sd                    =   1.3126060843181E-04
(PID.TID 0000.0001) %MON surfExpan_theta_mean         =  -4.5308288603586E-07
(PID.TID 0000.0001) %MON surfExpan_salt_mean          =  -2.5343640995814E-06
(PID.TID 0000.0001) // =======================================================
(PID.TID 0000.0001) // End MONITOR dynamic field statistics
(PID.TID 0000.0001) // =======================================================
time,SST,SSS,fu,fv,Q,E-P,i0,i1,a,b =   1.1232E+06  8.3772E-01  3.4668E+01 -3.6282E-02 -5.8123E-02  2.6568E+02  0.0000E+00    12     1  9.3333E-01  6.6667E-02
time,fu0,fu1,fu =   1.1232E+06 -4.5368E-02 -3.5633E-02 -3.6282E-02  9.3333E-01  6.6667E-02
 cg2d: Sum(rhs),rhsMax =  -1.96336003011055E-14  1.39838979558807E+01
(PID.TID 0000.0001)                    cg2d_init_res =    5.04783536373348E-01
(PID.TID 0000.0001)                       cg2d_iters =    25
(PID.TID 0000.0001)                         cg2d_res =    2.64033646866834E-14
(PID.TID 0000.0001) // =======================================================
(PID.TID 0000.0001) // Begin MONITOR dynamic field statistics
(PID.TID 0000.0001) // =======================================================
(PID.TID 0000.0001) %MON time_tsnumber                =                    27
(PID.TID 0000.0001) %MON time_secondsf                =   1.1664000000000E+06
(PID.TID 0000.0001) %MON dynstat_eta_max              =   1.6465067281849E+00
(PID.TID 0000.0001) %MON dynstat_eta_min              =  -1.0883651020414E+00
(PID.TID 0000.0001) %MON dynstat_eta_mean             =   1.1036734151191E-16
(PID.TID 0000.0001) %MON dynstat_eta_sd               =   3.8488865739836E-01
(PID.TID 0000.0001) %MON dynstat_eta_del2             =   1.8405059190230E-02
(PID.TID 0000.0001) %MON dynstat_uvel_max             =   2.0617640666227E-01
(PID.TID 0000.0001) %MON dynstat_uvel_min             =  -2.1339074537620E-01
(PID.TID 0000.0001) %MON dynstat_uvel_mean            =  -6.4354732216832E-03
(PID.TID 0000.0001) %MON dynstat_uvel_sd              =   2.1243524246922E-02
(PID.TID 0000.0001) %MON dynstat_uvel_del2            =   5.4055606487821E-03
(PID.TID 0000.0001) %MON dynstat_vvel_max             =   1.5274790929417E-01
(PID.TID 0000.0001) %MON dynstat_vvel_min             =  -1.5198853465169E-01
(PID.TID 0000.0001) %MON dynstat_vvel_mean            =   2.6107466061072E-03
(PID.TID 0000.0001) %MON dynstat_vvel_sd              =   1.6233873054736E-02
(PID.TID 0000.0001) %MON dynstat_vvel_del2            =   5.3256382005162E-03
(PID.TID 0000.0001) %MON dynstat_wvel_max             =   4.1112432865833E-04
(PID.TID 0000.0001) %MON dynstat_wvel_min             =  -4.0014499172695E-04
(PID.TID 0000.0001) %MON dynstat_wvel_mean            =   5.1689623520032E-22
(PID.TID 0000.0001) %MON dynstat_wvel_sd              =   3.4007572936297E-05
(PID.TID 0000.0001) %MON dynstat_wvel_del2            =   1.3591120349446E-05
(PID.TID 0000.0001) %MON dynstat_theta_max            =   2.9466748055727E+01
(PID.TID 0000.0001) %MON dynstat_theta_min            =  -1.9361456389999E+00
(PID.TID 0000.0001) %MON dynstat_theta_mean           =   3.5934636430633E+00
(PID.TID 0000.0001) %MON dynstat_theta_sd             =   4.3422685649529E+00
(PID.TID 0000.0001) %MON dynstat_theta_del2           =   1.3458390565128E-01
(PID.TID 0000.0001) %MON dynstat_salt_max             =   3.7416127650906E+01
(PID.TID 0000.0001) %MON dynstat_salt_min             =   2.9800617235652E+01
(PID.TID 0000.0001) %MON dynstat_salt_mean            =   3.4716292831815E+01
(PID.TID 0000.0001) %MON dynstat_salt_sd              =   2.9489921064622E-01
(PID.TID 0000.0001) %MON dynstat_salt_del2            =   2.5181936304697E-02
(PID.TID 0000.0001) %MON advcfl_uvel_max              =   3.2537600478842E-02
(PID.TID 0000.0001) %MON advcfl_vvel_max              =   1.4838234496959E-02
(PID.TID 0000.0001) %MON advcfl_wvel_max              =   1.7681961904081E-01
(PID.TID 0000.0001) %MON advcfl_W_hf_max              =   1.3360307346471E-01
(PID.TID 0000.0001) %MON pe_b_mean                    =   1.8956206260752E-04
(PID.TID 0000.0001) %MON ke_max                       =   2.3008258112170E-02
(PID.TID 0000.0001) %MON ke_mean                      =   3.4521631094421E-04
(PID.TID 0000.0001) %MON ke_vol                       =   1.3226782436723E+18
(PID.TID 0000.0001) %MON vort_r_min                   =  -7.4637697342816E-07
(PID.TID 0000.0001) %MON vort_r_max                   =   6.5774105868011E-07
(PID.TID 0000.0001) %MON vort_a_mean                  =  -2.5205769044021E-05
(PID.TID 0000.0001) %MON vort_a_sd                    =   7.3401980011653E-05
(PID.TID 0000.0001) %MON vort_p_mean                  =  -3.1758669117212E-05
(PID.TID 0000.0001) %MON vort_p_sd                    =   1.3126084284742E-04
(PID.TID 0000.0001) %MON surfExpan_theta_mean         =  -3.5235203851820E-06
(PID.TID 0000.0001) %MON surfExpan_salt_mean          =  -2.5948623438844E-06
(PID.TID 0000.0001) // =======================================================
(PID.TID 0000.0001) // End MONITOR dynamic field statistics
(PID.TID 0000.0001) // =======================================================
time,SST,SSS,fu,fv,Q,E-P,i0,i1,a,b =   1.1664E+06  8.6790E-01  3.4679E+01 -3.6120E-02 -5.7906E-02  2.6570E+02  0.0000E+00    12     1  9.5000E-01  5.0000E-02
time,fu0,fu1,fu =   1.1664E+06 -4.5368E-02 -3.5633E-02 -3.6120E-02  9.5000E-01  5.0000E-02
 cg2d: Sum(rhs),rhsMax =  -8.17575174227869E-14  1.37769726896886E+01
(PID.TID 0000.0001)                    cg2d_init_res =    5.13230004478345E-01
(PID.TID 0000.0001)                       cg2d_iters =    25
(PID.TID 0000.0001)                         cg2d_res =    2.48009284097972E-14
(PID.TID 0000.0001) // =======================================================
(PID.TID 0000.0001) // Begin MONITOR dynamic field statistics
(PID.TID 0000.0001) // =======================================================
(PID.TID 0000.0001) %MON time_tsnumber                =                    28
(PID.TID 0000.0001) %MON time_secondsf                =   1.2096000000000E+06
(PID.TID 0000.0001) %MON dynstat_eta_max              =   1.6207762372768E+00
(PID.TID 0000.0001) %MON dynstat_eta_min              =  -1.0716304427868E+00
(PID.TID 0000.0001) %MON dynstat_eta_mean             =   5.8481520943861E-17
(PID.TID 0000.0001) %MON dynstat_eta_sd               =   3.8321746608658E-01
(PID.TID 0000.0001) %MON dynstat_eta_del2             =   1.8434658621827E-02
(PID.TID 0000.0001) %MON dynstat_uvel_max             =   2.0288551228456E-01
(PID.TID 0000.0001) %MON dynstat_uvel_min             =  -2.0932104397264E-01
(PID.TID 0000.0001) %MON dynstat_uvel_mean            =  -5.9561180895075E-03
(PID.TID 0000.0001) %MON dynstat_uvel_sd              =   2.1172759870652E-02
(PID.TID 0000.0001) %MON dynstat_uvel_del2            =   5.4576896684197E-03
(PID.TID 0000.0001) %MON dynstat_vvel_max             =   1.5452798914050E-01
(PID.TID 0000.0001) %MON dynstat_vvel_min             =  -1.5624929105069E-01
(PID.TID 0000.0001) %MON dynstat_vvel_mean            =   2.7670126087802E-03
(PID.TID 0000.0001) %MON dynstat_vvel_sd              =   1.6316972588178E-02
(PID.TID 0000.0001) %MON dynstat_vvel_del2            =   5.3297261979437E-03
(PID.TID 0000.0001) %MON dynstat_wvel_max             =   4.1150469404327E-04
(PID.TID 0000.0001) %MON dynstat_wvel_min             =  -3.8130180760029E-04
(PID.TID 0000.0001) %MON dynstat_wvel_mean            =  -1.1277475719692E-22
(PID.TID 0000.0001) %MON dynstat_wvel_sd              =   3.3447600554454E-05
(PID.TID 0000.0001) %MON dynstat_wvel_del2            =   1.3318697332531E-05
(PID.TID 0000.0001) %MON dynstat_theta_max            =   2.9467326686683E+01
(PID.TID 0000.0001) %MON dynstat_theta_min            =  -1.9381039373746E+00
(PID.TID 0000.0001) %MON dynstat_theta_mean           =   3.5935817550474E+00
(PID.TID 0000.0001) %MON dynstat_theta_sd             =   4.3424824555001E+00
(PID.TID 0000.0001) %MON dynstat_theta_del2           =   1.3453406448911E-01
(PID.TID 0000.0001) %MON dynstat_salt_max             =   3.7415140317190E+01
(PID.TID 0000.0001) %MON dynstat_salt_min             =   2.9800920878196E+01
(PID.TID 0000.0001) %MON dynstat_salt_mean            =   3.4716320334228E+01
(PID.TID 0000.0001) %MON dynstat_salt_sd              =   2.9484822222879E-01
(PID.TID 0000.0001) %MON dynstat_salt_del2            =   2.5166222761263E-02
(PID.TID 0000.0001) %MON advcfl_uvel_max              =   3.2975306681213E-02
(PID.TID 0000.0001) %MON advcfl_vvel_max              =   1.5178365656899E-02
(PID.TID 0000.0001) %MON advcfl_wvel_max              =   1.6269551890734E-01
(PID.TID 0000.0001) %MON advcfl_W_hf_max              =   1.2241616667042E-01
(PID.TID 0000.0001) %MON pe_b_mean                    =   1.8791947479289E-04
(PID.TID 0000.0001) %MON ke_max                       =   2.3247891945123E-02
(PID.TID 0000.0001) %MON ke_mean                      =   3.4274568643834E-04
(PID.TID 0000.0001) %MON ke_vol                       =   1.3226782436723E+18
(PID.TID 0000.0001) %MON vort_r_min                   =  -7.4599696495664E-07
(PID.TID 0000.0001) %MON vort_r_max                   =   6.5008180709153E-07
(PID.TID 0000.0001) %MON vort_a_mean                  =  -2.5205769065622E-05
(PID.TID 0000.0001) %MON vort_a_sd                    =   7.3402077564080E-05
(PID.TID 0000.0001) %MON vort_p_mean                  =  -3.1758669144428E-05
(PID.TID 0000.0001) %MON vort_p_sd                    =   1.3126106695562E-04
(PID.TID 0000.0001) %MON surfExpan_theta_mean         =  -5.4497623680812E-06
(PID.TID 0000.0001) %MON surfExpan_salt_mean          =  -2.5197572093384E-06
(PID.TID 0000.0001) // =======================================================
(PID.TID 0000.0001) // End MONITOR dynamic field statistics
(PID.TID 0000.0001) // =======================================================
time,SST,SSS,fu,fv,Q,E-P,i0,i1,a,b =   1.2096E+06  8.9807E-01  3.4691E+01 -3.5957E-02 -5.7690E-02  2.6573E+02  0.0000E+00    12     1  9.6667E-01  3.3333E-02
time,fu0,fu1,fu =   1.2096E+06 -4.5368E-02 -3.5633E-02 -3.5957E-02  9.6667E-01  3.3333E-02
 cg2d: Sum(rhs),rhsMax =  -7.53112849860571E-14  1.33499348747001E+01
(PID.TID 0000.0001)                    cg2d_init_res =    5.33178278206078E-01
(PID.TID 0000.0001)                       cg2d_iters =    25
(PID.TID 0000.0001)                         cg2d_res =    2.27729947224151E-14
(PID.TID 0000.0001) // =======================================================
(PID.TID 0000.0001) // Begin MONITOR dynamic field statistics
(PID.TID 0000.0001) // =======================================================
(PID.TID 0000.0001) %MON time_tsnumber                =                    29
(PID.TID 0000.0001) %MON time_secondsf                =   1.2528000000000E+06
(PID.TID 0000.0001) %MON dynstat_eta_max              =   1.5695414855705E+00
(PID.TID 0000.0001) %MON dynstat_eta_min              =  -1.0437245815769E+00
(PID.TID 0000.0001) %MON dynstat_eta_mean             =   2.6601789721730E-17
(PID.TID 0000.0001) %MON dynstat_eta_sd               =   3.8181576181983E-01
(PID.TID 0000.0001) %MON dynstat_eta_del2             =   1.8569570707517E-02
(PID.TID 0000.0001) %MON dynstat_uvel_max             =   2.0085688557800E-01
(PID.TID 0000.0001) %MON dynstat_uvel_min             =  -2.0138156960401E-01
(PID.TID 0000.0001) %MON dynstat_uvel_mean            =  -5.5026685465431E-03
(PID.TID 0000.0001) %MON dynstat_uvel_sd              =   2.1042919586946E-02
(PID.TID 0000.0001) %MON dynstat_uvel_del2            =   5.5071486597983E-03
(PID.TID 0000.0001) %MON dynstat_vvel_max             =   1.5586027398460E-01
(PID.TID 0000.0001) %MON dynstat_vvel_min             =  -1.5680971855854E-01
(PID.TID 0000.0001) %MON dynstat_vvel_mean            =   2.9372202019451E-03
(PID.TID 0000.0001) %MON dynstat_vvel_sd              =   1.6398017724594E-02
(PID.TID 0000.0001) %MON dynstat_vvel_del2            =   5.3286014558052E-03
(PID.TID 0000.0001) %MON dynstat_wvel_max             =   4.0927790906850E-04
(PID.TID 0000.0001) %MON dynstat_wvel_min             =  -3.8286252127319E-04
(PID.TID 0000.0001) %MON dynstat_wvel_mean            =   6.5362463246619E-22
(PID.TID 0000.0001) %MON dynstat_wvel_sd              =   3.2982511858240E-05
(PID.TID 0000.0001) %MON dynstat_wvel_del2            =   1.3080993335440E-05
(PID.TID 0000.0001) %MON dynstat_theta_max            =   2.9467594228310E+01
(PID.TID 0000.0001) %MON dynstat_theta_min            =  -1.9399036778505E+00
(PID.TID 0000.0001) %MON dynstat_theta_mean           =   3.5937034861499E+00
(PID.TID 0000.0001) %MON dynstat_theta_sd             =   4.3428473361175E+00
(PID.TID 0000.0001) %MON dynstat_theta_del2           =   1.3451303697935E-01
(PID.TID 0000.0001) %MON dynstat_salt_max             =   3.7414149526651E+01
(PID.TID 0000.0001) %MON dynstat_salt_min             =   2.9801298581780E+01
(PID.TID 0000.0001) %MON dynstat_salt_mean            =   3.4716344742116E+01
(PID.TID 0000.0001) %MON dynstat_salt_sd              =   2.9479461353202E-01
(PID.TID 0000.0001) %MON dynstat_salt_del2            =   2.5158647361784E-02
(PID.TID 0000.0001) %MON advcfl_uvel_max              =   3.3297472291525E-02
(PID.TID 0000.0001) %MON advcfl_vvel_max              =   1.5232806695199E-02
(PID.TID 0000.0001) %MON advcfl_wvel_max              =   1.4916691463189E-01
(PID.TID 0000.0001) %MON advcfl_W_hf_max              =   1.0851048940533E-01
(PID.TID 0000.0001) %MON pe_b_mean                    =   1.8654727327974E-04
(PID.TID 0000.0001) %MON ke_max                       =   2.3661899516791E-02
(PID.TID 0000.0001) %MON ke_mean                      =   3.3952104462374E-04
(PID.TID 0000.0001) %MON ke_vol                       =   1.3226782436723E+18
(PID.TID 0000.0001) %MON vort_r_min                   =  -7.4176954880508E-07
(PID.TID 0000.0001) %MON vort_r_max                   =   6.3869070211058E-07
(PID.TID 0000.0001) %MON vort_a_mean                  =  -2.5205769093297E-05
(PID.TID 0000.0001) %MON vort_a_sd                    =   7.3402172078871E-05
(PID.TID 0000.0001) %MON vort_p_mean                  =  -3.1758669179297E-05
(PID.TID 0000.0001) %MON vort_p_sd                    =   1.3126127902971E-04
(PID.TID 0000.0001) %MON surfExpan_theta_mean         =  -6.3617921923520E-06
(PID.TID 0000.0001) %MON surfExpan_salt_mean          =  -2.3219130063480E-06
(PID.TID 0000.0001) // =======================================================
(PID.TID 0000.0001) // End MONITOR dynamic field statistics
(PID.TID 0000.0001) // =======================================================
time,SST,SSS,fu,fv,Q,E-P,i0,i1,a,b =   1.2528E+06  9.2825E-01  3.4703E+01 -3.5795E-02 -5.7473E-02  2.6575E+02  0.0000E+00    12     1  9.8333E-01  1.6667E-02
time,fu0,fu1,fu =   1.2528E+06 -4.5368E-02 -3.5633E-02 -3.5795E-02  9.8333E-01  1.6667E-02
 cg2d: Sum(rhs),rhsMax =   1.32248378914568E-13  1.27132009595264E+01
(PID.TID 0000.0001)                    cg2d_init_res =    5.64189995758438E-01
(PID.TID 0000.0001)                       cg2d_iters =    24
(PID.TID 0000.0001)                         cg2d_res =    9.36737805557787E-14
(PID.TID 0000.0001) // =======================================================
(PID.TID 0000.0001) // Begin MONITOR dynamic field statistics
(PID.TID 0000.0001) // =======================================================
(PID.TID 0000.0001) %MON time_tsnumber                =                    30
(PID.TID 0000.0001) %MON time_secondsf                =   1.2960000000000E+06
(PID.TID 0000.0001) %MON dynstat_eta_max              =   1.4940497976238E+00
(PID.TID 0000.0001) %MON dynstat_eta_min              =  -1.0072652399384E+00
(PID.TID 0000.0001) %MON dynstat_eta_mean             =  -5.2548701442997E-17
(PID.TID 0000.0001) %MON dynstat_eta_sd               =   3.8083179952469E-01
(PID.TID 0000.0001) %MON dynstat_eta_del2             =   1.8748219294902E-02
(PID.TID 0000.0001) %MON dynstat_uvel_max             =   2.0053636025639E-01
(PID.TID 0000.0001) %MON dynstat_uvel_min             =  -1.9628260016729E-01
(PID.TID 0000.0001) %MON dynstat_uvel_mean            =  -5.0813547334455E-03
(PID.TID 0000.0001) %MON dynstat_uvel_sd              =   2.0859112624012E-02
(PID.TID 0000.0001) %MON dynstat_uvel_del2            =   5.5509649100130E-03
(PID.TID 0000.0001) %MON dynstat_vvel_max             =   1.5676103377159E-01
(PID.TID 0000.0001) %MON dynstat_vvel_min             =  -1.5375089499712E-01
(PID.TID 0000.0001) %MON dynstat_vvel_mean            =   3.1119677405198E-03
(PID.TID 0000.0001) %MON dynstat_vvel_sd              =   1.6472160168867E-02
(PID.TID 0000.0001) %MON dynstat_vvel_del2            =   5.3233683211234E-03
(PID.TID 0000.0001) %MON dynstat_wvel_max             =   4.0456017804898E-04
(PID.TID 0000.0001) %MON dynstat_wvel_min             =  -3.8294699597769E-04
(PID.TID 0000.0001) %MON dynstat_wvel_mean            =   3.6899677251344E-22
(PID.TID 0000.0001) %MON dynstat_wvel_sd              =   3.2606679449703E-05
(PID.TID 0000.0001) %MON dynstat_wvel_del2            =   1.2890106936918E-05
(PID.TID 0000.0001) %MON dynstat_theta_max            =   2.9467802275899E+01
(PID.TID 0000.0001) %MON dynstat_theta_min            =  -1.9414390927285E+00
(PID.TID 0000.0001) %MON dynstat_theta_mean           =   3.5938199993032E+00
(PID.TID 0000.0001) %MON dynstat_theta_sd             =   4.3433283634501E+00
(PID.TID 0000.0001) %MON dynstat_theta_del2           =   1.3444990554284E-01
(PID.TID 0000.0001) %MON dynstat_salt_max             =   3.7413145850162E+01
(PID.TID 0000.0001) %MON dynstat_salt_min             =   2.9801744376518E+01
(PID.TID 0000.0001) %MON dynstat_salt_mean            =   3.4716364986310E+01
(PID.TID 0000.0001) %MON dynstat_salt_sd              =   2.9473929267691E-01
(PID.TID 0000.0001) %MON dynstat_salt_del2            =   2.5138892182700E-02
(PID.TID 0000.0001) %MON advcfl_uvel_max              =   3.3511190129748E-02
(PID.TID 0000.0001) %MON advcfl_vvel_max              =   1.5228077358552E-02
(PID.TID 0000.0001) %MON advcfl_wvel_max              =   1.4929202501042E-01
(PID.TID 0000.0001) %MON advcfl_W_hf_max              =   1.0895871953680E-01
(PID.TID 0000.0001) %MON pe_b_mean                    =   1.8558702498874E-04
(PID.TID 0000.0001) %MON ke_max                       =   2.4046245260267E-02
(PID.TID 0000.0001) %MON ke_mean                      =   3.3556476158204E-04
(PID.TID 0000.0001) %MON ke_vol                       =   1.3226782436723E+18
(PID.TID 0000.0001) %MON vort_r_min                   =  -7.4539942976682E-07
(PID.TID 0000.0001) %MON vort_r_max                   =   6.3202724237374E-07
(PID.TID 0000.0001) %MON vort_a_mean                  =  -2.5205769124029E-05
(PID.TID 0000.0001) %MON vort_a_sd                    =   7.3402262161741E-05
(PID.TID 0000.0001) %MON vort_p_mean                  =  -3.1758669218019E-05
(PID.TID 0000.0001) %MON vort_p_sd                    =   1.3126147821602E-04
(PID.TID 0000.0001) %MON surfExpan_theta_mean         =  -6.4004176731691E-06
(PID.TID 0000.0001) %MON surfExpan_salt_mean          =  -2.0171596747200E-06
(PID.TID 0000.0001) // =======================================================
(PID.TID 0000.0001) // End MONITOR dynamic field statistics
(PID.TID 0000.0001) // =======================================================
(PID.TID 0000.0001)  MDS_WRITE_RL_VEC: irec =  00000006   00066240
(PID.TID 0000.0001)  MDS_WRITE_RL_VEC: irec =  00000006   00066240
(PID.TID 0000.0001)  MDS_WRITE_RL_VEC: irec =  00000006   00066240
(PID.TID 0000.0001)  MDS_WRITE_RL_VEC: irec =  00000006   00066240
(PID.TID 0000.0001)  MDS_WRITE_RL_VEC: irec =  00000006   00066240
(PID.TID 0000.0001)  MDS_WRITE_RL_VEC: irec =  00000006   00066240
(PID.TID 0000.0001)  MDS_WRITE_RL_VEC: irec =  00000006   00066240
(PID.TID 0000.0001)  MDS_WRITE_RL_VEC: irec =  00000006   00066240
(PID.TID 0000.0001)  MDS_WRITE_RL_VEC: irec =  00000006   00066240
(PID.TID 0000.0001)  MDS_WRITE_RL_VEC: irec =  00000006   00066240
(PID.TID 0000.0001)  MDS_WRITE_RL_VEC: irec =  00000006   00066240
(PID.TID 0000.0001)  MDS_WRITE_RL_VEC: irec =  00000006   00004416
(PID.TID 0000.0001)  MDS_WRITE_RL_VEC: irec =  00000006   00066240
(PID.TID 0000.0001)  MDS_WRITE_RL_VEC: irec =  00000006   00004416
(PID.TID 0000.0001)  MDS_WRITE_RL_VEC: irec =  00000006   00004416
(PID.TID 0000.0001)  MDS_WRITE_RL_VEC: irec =  00000006   00004416
(PID.TID 0000.0001)  MDS_WRITE_RL_VEC: irec =  00000006   00004416
(PID.TID 0000.0001)  MDS_WRITE_RL_VEC: irec =  00000006   00004416
(PID.TID 0000.0001)  MDS_WRITE_RL_VEC: irec =  00000006   00004416
(PID.TID 0000.0001)  MDS_WRITE_RL_VEC: irec =  00000006   00004416
(PID.TID 0000.0001)  MDS_WRITE_RL_VEC: irec =  00000006   00004416
(PID.TID 0000.0001)  MDS_WRITE_RL_VEC: irec =  00000006   00004416
(PID.TID 0000.0001)  MDS_WRITE_RL_VEC: irec =  00000006   00004416
(PID.TID 0000.0001)  MDS_WRITE_RL_VEC: irec =  00000006   00004416
(PID.TID 0000.0001)  MDS_WRITE_RL_VEC: irec =  00000006   00004416
(PID.TID 0000.0001)  MDS_WRITE_RL_VEC: irec =  00000006   00004416
(PID.TID 0000.0001)  MDS_WRITE_RL_VEC: irec =  00000006   00004416
(PID.TID 0000.0001)  MDS_WRITE_RL_VEC: irec =  00000006   00004416
(PID.TID 0000.0001)  MDS_WRITE_RL_VEC: irec =  00000006   00004416
(PID.TID 0000.0001)  MDS_WRITE_RL_VEC: irec =  00000006   00004416
(PID.TID 0000.0001)  MDS_WRITE_RL_VEC: irec =  00000006   00004416
 S/R EXTERNAL_FIELDS_LOAD: Reading new data  1296000. 30
(PID.TID 0000.0001)  MDSREADFIELD: opening global file: trenberth_taux.bin
(PID.TID 0000.0001)  MDSREADFIELD: opening global file: trenberth_taux.bin
(PID.TID 0000.0001)  MDSREADFIELD: opening global file: trenberth_tauy.bin
(PID.TID 0000.0001)  MDSREADFIELD: opening global file: trenberth_tauy.bin
(PID.TID 0000.0001)  MDSREADFIELD: opening global file: ncep_qnet.bin
(PID.TID 0000.0001)  MDSREADFIELD: opening global file: ncep_qnet.bin
(PID.TID 0000.0001)  MDSREADFIELD: opening global file: lev_sst.bin
(PID.TID 0000.0001)  MDSREADFIELD: opening global file: lev_sst.bin
(PID.TID 0000.0001)  MDSREADFIELD: opening global file: lev_sss.bin
(PID.TID 0000.0001)  MDSREADFIELD: opening global file: lev_sss.bin
time,SST,SSS,fu,fv,Q,E-P,i0,i1,a,b =   1.2960E+06  9.5843E-01  3.4715E+01 -3.5633E-02 -5.7257E-02  2.6577E+02  0.0000E+00     1     2  0.0000E+00  1.0000E+00
time,fu0,fu1,fu =   1.2960E+06 -3.5633E-02 -1.4435E-02 -3.5633E-02  0.0000E+00  1.0000E+00
 cg2d: Sum(rhs),rhsMax =  -9.65963420362925E-14  1.18840510747824E+01
(PID.TID 0000.0001)                    cg2d_init_res =    6.06247055459227E-01
(PID.TID 0000.0001)                       cg2d_iters =    24
(PID.TID 0000.0001)                         cg2d_res =    8.38529373452592E-14
(PID.TID 0000.0001) // =======================================================
(PID.TID 0000.0001) // Begin MONITOR dynamic field statistics
(PID.TID 0000.0001) // =======================================================
(PID.TID 0000.0001) %MON time_tsnumber                =                    31
(PID.TID 0000.0001) %MON time_secondsf                =   1.3392000000000E+06
(PID.TID 0000.0001) %MON dynstat_eta_max              =   1.3963430480475E+00
(PID.TID 0000.0001) %MON dynstat_eta_min              =  -1.0227280002819E+00
(PID.TID 0000.0001) %MON dynstat_eta_mean             =   2.3883185792854E-17
(PID.TID 0000.0001) %MON dynstat_eta_sd               =   3.8038546677596E-01
(PID.TID 0000.0001) %MON dynstat_eta_del2             =   1.8860408165670E-02
(PID.TID 0000.0001) %MON dynstat_uvel_max             =   1.9899663085061E-01
(PID.TID 0000.0001) %MON dynstat_uvel_min             =  -1.9763373116992E-01
(PID.TID 0000.0001) %MON dynstat_uvel_mean            =  -4.6967240792846E-03
(PID.TID 0000.0001) %MON dynstat_uvel_sd              =   2.0627744146512E-02
(PID.TID 0000.0001) %MON dynstat_uvel_del2            =   5.5905318644300E-03
(PID.TID 0000.0001) %MON dynstat_vvel_max             =   1.5724576878908E-01
(PID.TID 0000.0001) %MON dynstat_vvel_min             =  -1.5016751820344E-01
(PID.TID 0000.0001) %MON dynstat_vvel_mean            =   3.2822723664049E-03
(PID.TID 0000.0001) %MON dynstat_vvel_sd              =   1.6533654928781E-02
(PID.TID 0000.0001) %MON dynstat_vvel_del2            =   5.3145688092996E-03
(PID.TID 0000.0001) %MON dynstat_wvel_max             =   3.9746869279983E-04
(PID.TID 0000.0001) %MON dynstat_wvel_min             =  -3.8146983860378E-04
(PID.TID 0000.0001) %MON dynstat_wvel_mean            =   1.9904718796419E-22
(PID.TID 0000.0001) %MON dynstat_wvel_sd              =   3.2306617156730E-05
(PID.TID 0000.0001) %MON dynstat_wvel_del2            =   1.2740827808063E-05
(PID.TID 0000.0001) %MON dynstat_theta_max            =   2.9478435643684E+01
(PID.TID 0000.0001) %MON dynstat_theta_min            =  -1.9426310035081E+00
(PID.TID 0000.0001) %MON dynstat_theta_mean           =   3.5939243240552E+00
(PID.TID 0000.0001) %MON dynstat_theta_sd             =   4.3438876524050E+00
(PID.TID 0000.0001) %MON dynstat_theta_del2           =   1.3436813803539E-01
(PID.TID 0000.0001) %MON dynstat_salt_max             =   3.7412116938815E+01
(PID.TID 0000.0001) %MON dynstat_salt_min             =   2.9802248043314E+01
(PID.TID 0000.0001) %MON dynstat_salt_mean            =   3.4716380246806E+01
(PID.TID 0000.0001) %MON dynstat_salt_sd              =   2.9468029908956E-01
(PID.TID 0000.0001) %MON dynstat_salt_del2            =   2.5126432341663E-02
(PID.TID 0000.0001) %MON advcfl_uvel_max              =   3.3624495943318E-02
(PID.TID 0000.0001) %MON advcfl_vvel_max              =   1.5275165478393E-02
(PID.TID 0000.0001) %MON advcfl_wvel_max              =   1.5530141614971E-01
(PID.TID 0000.0001) %MON advcfl_W_hf_max              =   1.1373106027161E-01
(PID.TID 0000.0001) %MON pe_b_mean                    =   1.8515226598566E-04
(PID.TID 0000.0001) %MON ke_max                       =   2.4265227472697E-02
(PID.TID 0000.0001) %MON ke_mean                      =   3.3089534805741E-04
(PID.TID 0000.0001) %MON ke_vol                       =   1.3226782436723E+18
(PID.TID 0000.0001) %MON vort_r_min                   =  -7.5103953035625E-07
(PID.TID 0000.0001) %MON vort_r_max                   =   6.2899413116457E-07
(PID.TID 0000.0001) %MON vort_a_mean                  =  -2.5205769154847E-05
(PID.TID 0000.0001) %MON vort_a_sd                    =   7.3402346685070E-05
(PID.TID 0000.0001) %MON vort_p_mean                  =  -3.1758669256849E-05
(PID.TID 0000.0001) %MON vort_p_sd                    =   1.3126166415415E-04
(PID.TID 0000.0001) %MON surfExpan_theta_mean         =  -5.7298141485596E-06
(PID.TID 0000.0001) %MON surfExpan_salt_mean          =  -1.6280483775941E-06
(PID.TID 0000.0001) // =======================================================
(PID.TID 0000.0001) // End MONITOR dynamic field statistics
(PID.TID 0000.0001) // =======================================================
time,SST,SSS,fu,fv,Q,E-P,i0,i1,a,b =   1.3392E+06  9.3359E-01  3.4710E+01 -3.5280E-02 -5.6596E-02  2.6535E+02  0.0000E+00     1     2  1.6667E-02  9.8333E-01
time,fu0,fu1,fu =   1.3392E+06 -3.5633E-02 -1.4435E-02 -3.5280E-02  1.6667E-02  9.8333E-01
 cg2d: Sum(rhs),rhsMax =   1.54161405863107E-13  1.08860124062525E+01
(PID.TID 0000.0001)                    cg2d_init_res =    6.60365299276509E-01
(PID.TID 0000.0001)                       cg2d_iters =    24
(PID.TID 0000.0001)                         cg2d_res =    6.71488466422073E-14
(PID.TID 0000.0001) // =======================================================
(PID.TID 0000.0001) // Begin MONITOR dynamic field statistics
(PID.TID 0000.0001) // =======================================================
(PID.TID 0000.0001) %MON time_tsnumber                =                    32
(PID.TID 0000.0001) %MON time_secondsf                =   1.3824000000000E+06
(PID.TID 0000.0001) %MON dynstat_eta_max              =   1.2791861149789E+00
(PID.TID 0000.0001) %MON dynstat_eta_min              =  -1.0353472178970E+00
(PID.TID 0000.0001) %MON dynstat_eta_mean             =   1.8758681143905E-16
(PID.TID 0000.0001) %MON dynstat_eta_sd               =   3.8055396451729E-01
(PID.TID 0000.0001) %MON dynstat_eta_del2             =   1.8925309049844E-02
(PID.TID 0000.0001) %MON dynstat_uvel_max             =   2.0044650907207E-01
(PID.TID 0000.0001) %MON dynstat_uvel_min             =  -1.9842985625346E-01
(PID.TID 0000.0001) %MON dynstat_uvel_mean            =  -4.3516607357008E-03
(PID.TID 0000.0001) %MON dynstat_uvel_sd              =   2.0356270535423E-02
(PID.TID 0000.0001) %MON dynstat_uvel_del2            =   5.6255435934296E-03
(PID.TID 0000.0001) %MON dynstat_vvel_max             =   1.6191516637966E-01
(PID.TID 0000.0001) %MON dynstat_vvel_min             =  -1.5272446559430E-01
(PID.TID 0000.0001) %MON dynstat_vvel_mean            =   3.4397948863205E-03
(PID.TID 0000.0001) %MON dynstat_vvel_sd              =   1.6576922693120E-02
(PID.TID 0000.0001) %MON dynstat_vvel_del2            =   5.3030334034357E-03
(PID.TID 0000.0001) %MON dynstat_wvel_max             =   3.8812766730420E-04
(PID.TID 0000.0001) %MON dynstat_wvel_min             =  -3.7838363600604E-04
(PID.TID 0000.0001) %MON dynstat_wvel_mean            =  -1.6352229588806E-22
(PID.TID 0000.0001) %MON dynstat_wvel_sd              =   3.2065036647711E-05
(PID.TID 0000.0001) %MON dynstat_wvel_del2            =   1.2632347473701E-05
(PID.TID 0000.0001) %MON dynstat_theta_max            =   2.9493556525980E+01
(PID.TID 0000.0001) %MON dynstat_theta_min            =  -1.9434247023925E+00
(PID.TID 0000.0001) %MON dynstat_theta_mean           =   3.5940108719939E+00
(PID.TID 0000.0001) %MON dynstat_theta_sd             =   4.3444932332630E+00
(PID.TID 0000.0001) %MON dynstat_theta_del2           =   1.3431193190654E-01
(PID.TID 0000.0001) %MON dynstat_salt_max             =   3.7411008972568E+01
(PID.TID 0000.0001) %MON dynstat_salt_min             =   2.9802776370019E+01
(PID.TID 0000.0001) %MON dynstat_salt_mean            =   3.4716389995348E+01
(PID.TID 0000.0001) %MON dynstat_salt_sd              =   2.9461996884863E-01
(PID.TID 0000.0001) %MON dynstat_salt_del2            =   2.5105978007030E-02
(PID.TID 0000.0001) %MON advcfl_uvel_max              =   3.3646211148245E-02
(PID.TID 0000.0001) %MON advcfl_vvel_max              =   1.5728760010252E-02
(PID.TID 0000.0001) %MON advcfl_wvel_max              =   1.6870598361887E-01
(PID.TID 0000.0001) %MON advcfl_W_hf_max              =   1.2084120010642E-01
(PID.TID 0000.0001) %MON pe_b_mean                    =   1.8531633454827E-04
(PID.TID 0000.0001) %MON ke_max                       =   2.4297091562286E-02
(PID.TID 0000.0001) %MON ke_mean                      =   3.2554065213453E-04
(PID.TID 0000.0001) %MON ke_vol                       =   1.3226782436723E+18
(PID.TID 0000.0001) %MON vort_r_min                   =  -7.5752127227845E-07
(PID.TID 0000.0001) %MON vort_r_max                   =   6.2717441153194E-07
(PID.TID 0000.0001) %MON vort_a_mean                  =  -2.5205769182830E-05
(PID.TID 0000.0001) %MON vort_a_sd                    =   7.3402424792762E-05
(PID.TID 0000.0001) %MON vort_p_mean                  =  -3.1758669292107E-05
(PID.TID 0000.0001) %MON vort_p_sd                    =   1.3126183683255E-04
(PID.TID 0000.0001) %MON surfExpan_theta_mean         =  -4.4950912093384E-06
(PID.TID 0000.0001) %MON surfExpan_salt_mean          =  -1.1766355215673E-06
(PID.TID 0000.0001) // =======================================================
(PID.TID 0000.0001) // End MONITOR dynamic field statistics
(PID.TID 0000.0001) // =======================================================
time,SST,SSS,fu,fv,Q,E-P,i0,i1,a,b =   1.3824E+06  9.0875E-01  3.4705E+01 -3.4926E-02 -5.5936E-02  2.6493E+02  0.0000E+00     1     2  3.3333E-02  9.6667E-01
time,fu0,fu1,fu =   1.3824E+06 -3.5633E-02 -1.4435E-02 -3.4926E-02  3.3333E-02  9.6667E-01
 cg2d: Sum(rhs),rhsMax =   3.41331130027100E-13  1.02664653546239E+01
(PID.TID 0000.0001)                    cg2d_init_res =    6.92575901705399E-01
(PID.TID 0000.0001)                       cg2d_iters =    25
(PID.TID 0000.0001)                         cg2d_res =    2.80468060668862E-14
(PID.TID 0000.0001) // =======================================================
(PID.TID 0000.0001) // Begin MONITOR dynamic field statistics
(PID.TID 0000.0001) // =======================================================
(PID.TID 0000.0001) %MON time_tsnumber                =                    33
(PID.TID 0000.0001) %MON time_secondsf                =   1.4256000000000E+06
(PID.TID 0000.0001) %MON dynstat_eta_max              =   1.1484866842127E+00
(PID.TID 0000.0001) %MON dynstat_eta_min              =  -1.0463105665022E+00
(PID.TID 0000.0001) %MON dynstat_eta_mean             =   2.3526934371628E-16
(PID.TID 0000.0001) %MON dynstat_eta_sd               =   3.8136146062625E-01
(PID.TID 0000.0001) %MON dynstat_eta_del2             =   1.8936602770839E-02
(PID.TID 0000.0001) %MON dynstat_uvel_max             =   2.1092493085827E-01
(PID.TID 0000.0001) %MON dynstat_uvel_min             =  -1.9869789719648E-01
(PID.TID 0000.0001) %MON dynstat_uvel_mean            =  -4.0475027890005E-03
(PID.TID 0000.0001) %MON dynstat_uvel_sd              =   2.0053461671070E-02
(PID.TID 0000.0001) %MON dynstat_uvel_del2            =   5.6568821616911E-03
(PID.TID 0000.0001) %MON dynstat_vvel_max             =   1.7344439382676E-01
(PID.TID 0000.0001) %MON dynstat_vvel_min             =  -1.5346167238534E-01
(PID.TID 0000.0001) %MON dynstat_vvel_mean            =   3.5771978183843E-03
(PID.TID 0000.0001) %MON dynstat_vvel_sd              =   1.6597174185527E-02
(PID.TID 0000.0001) %MON dynstat_vvel_del2            =   5.2897368033310E-03
(PID.TID 0000.0001) %MON dynstat_wvel_max             =   3.7667328843489E-04
(PID.TID 0000.0001) %MON dynstat_wvel_min             =  -3.7369068043983E-04
(PID.TID 0000.0001) %MON dynstat_wvel_mean            =  -5.9208540595449E-22
(PID.TID 0000.0001) %MON dynstat_wvel_sd              =   3.1864681643751E-05
(PID.TID 0000.0001) %MON dynstat_wvel_del2            =   1.2549909178169E-05
(PID.TID 0000.0001) %MON dynstat_theta_max            =   2.9507682272624E+01
(PID.TID 0000.0001) %MON dynstat_theta_min            =  -1.9437849996843E+00
(PID.TID 0000.0001) %MON dynstat_theta_mean           =   3.5940763294186E+00
(PID.TID 0000.0001) %MON dynstat_theta_sd             =   4.3451118379360E+00
(PID.TID 0000.0001) %MON dynstat_theta_del2           =   1.3422584892389E-01
(PID.TID 0000.0001) %MON dynstat_salt_max             =   3.7409827509194E+01
(PID.TID 0000.0001) %MON dynstat_salt_min             =   2.9803318704629E+01
(PID.TID 0000.0001) %MON dynstat_salt_mean            =   3.4716394001299E+01
(PID.TID 0000.0001) %MON dynstat_salt_sd              =   2.9455737712107E-01
(PID.TID 0000.0001) %MON dynstat_salt_del2            =   2.5084123099240E-02
(PID.TID 0000.0001) %MON advcfl_uvel_max              =   3.3585870138778E-02
(PID.TID 0000.0001) %MON advcfl_vvel_max              =   1.6848732003448E-02
(PID.TID 0000.0001) %MON advcfl_wvel_max              =   1.9182479399087E-01
(PID.TID 0000.0001) %MON advcfl_W_hf_max              =   1.3680846118478E-01
(PID.TID 0000.0001) %MON pe_b_mean                    =   1.8610361307215E-04
(PID.TID 0000.0001) %MON ke_max                       =   2.4129088981796E-02
(PID.TID 0000.0001) %MON ke_mean                      =   3.1955529605649E-04
(PID.TID 0000.0001) %MON ke_vol                       =   1.3226782436723E+18
(PID.TID 0000.0001) %MON vort_r_min                   =  -7.6484975486110E-07
(PID.TID 0000.0001) %MON vort_r_max                   =   6.2686969616682E-07
(PID.TID 0000.0001) %MON vort_a_mean                  =  -2.5205769205704E-05
(PID.TID 0000.0001) %MON vort_a_sd                    =   7.3402495896900E-05
(PID.TID 0000.0001) %MON vort_p_mean                  =  -3.1758669320928E-05
(PID.TID 0000.0001) %MON vort_p_sd                    =   1.3126199637836E-04
(PID.TID 0000.0001) %MON surfExpan_theta_mean         =  -2.8501862234569E-06
(PID.TID 0000.0001) %MON surfExpan_salt_mean          =  -6.8872094136307E-07
(PID.TID 0000.0001) // =======================================================
(PID.TID 0000.0001) // End MONITOR dynamic field statistics
(PID.TID 0000.0001) // =======================================================
time,SST,SSS,fu,fv,Q,E-P,i0,i1,a,b =   1.4256E+06  8.8391E-01  3.4700E+01 -3.4573E-02 -5.5276E-02  2.6451E+02  0.0000E+00     1     2  5.0000E-02  9.5000E-01
time,fu0,fu1,fu =   1.4256E+06 -3.5633E-02 -1.4435E-02 -3.4573E-02  5.0000E-02  9.5000E-01
 cg2d: Sum(rhs),rhsMax =   4.25326440733897E-13  1.03997405742577E+01
(PID.TID 0000.0001)                    cg2d_init_res =    6.69987640527556E-01
(PID.TID 0000.0001)                       cg2d_iters =    25
(PID.TID 0000.0001)                         cg2d_res =    3.21851542394920E-14
(PID.TID 0000.0001) // =======================================================
(PID.TID 0000.0001) // Begin MONITOR dynamic field statistics
(PID.TID 0000.0001) // =======================================================
(PID.TID 0000.0001) %MON time_tsnumber                =                    34
(PID.TID 0000.0001) %MON time_secondsf                =   1.4688000000000E+06
(PID.TID 0000.0001) %MON dynstat_eta_max              =   1.1625651477291E+00
(PID.TID 0000.0001) %MON dynstat_eta_min              =  -1.0540202168244E+00
(PID.TID 0000.0001) %MON dynstat_eta_mean             =   2.5536691249885E-16
(PID.TID 0000.0001) %MON dynstat_eta_sd               =   3.8277631130300E-01
(PID.TID 0000.0001) %MON dynstat_eta_del2             =   1.8952846755875E-02
(PID.TID 0000.0001) %MON dynstat_uvel_max             =   2.1891295806687E-01
(PID.TID 0000.0001) %MON dynstat_uvel_min             =  -1.9846638422116E-01
(PID.TID 0000.0001) %MON dynstat_uvel_mean            =  -3.7841107985466E-03
(PID.TID 0000.0001) %MON dynstat_uvel_sd              =   1.9728881807368E-02
(PID.TID 0000.0001) %MON dynstat_uvel_del2            =   5.6839578678997E-03
(PID.TID 0000.0001) %MON dynstat_vvel_max             =   1.8352459408169E-01
(PID.TID 0000.0001) %MON dynstat_vvel_min             =  -1.5255278287976E-01
(PID.TID 0000.0001) %MON dynstat_vvel_mean            =   3.6881863649528E-03
(PID.TID 0000.0001) %MON dynstat_vvel_sd              =   1.6591177403218E-02
(PID.TID 0000.0001) %MON dynstat_vvel_del2            =   5.2769222352116E-03
(PID.TID 0000.0001) %MON dynstat_wvel_max             =   3.6325627462227E-04
(PID.TID 0000.0001) %MON dynstat_wvel_min             =  -3.6744893641722E-04
(PID.TID 0000.0001) %MON dynstat_wvel_mean            =   1.8659858745706E-23
(PID.TID 0000.0001) %MON dynstat_wvel_sd              =   3.1691410049871E-05
(PID.TID 0000.0001) %MON dynstat_wvel_del2            =   1.2489753173007E-05
(PID.TID 0000.0001) %MON dynstat_theta_max            =   2.9520603894028E+01
(PID.TID 0000.0001) %MON dynstat_theta_min            =  -1.9436938265766E+00
(PID.TID 0000.0001) %MON dynstat_theta_mean           =   3.5941186853620E+00
(PID.TID 0000.0001) %MON dynstat_theta_sd             =   4.3457144199765E+00
(PID.TID 0000.0001) %MON dynstat_theta_del2           =   1.3413475483890E-01
(PID.TID 0000.0001) %MON dynstat_salt_max             =   3.7408558220992E+01
(PID.TID 0000.0001) %MON dynstat_salt_min             =   2.9803856772111E+01
(PID.TID 0000.0001) %MON dynstat_salt_mean            =   3.4716392313490E+01
(PID.TID 0000.0001) %MON dynstat_salt_sd              =   2.9449266554319E-01
(PID.TID 0000.0001) %MON dynstat_salt_del2            =   2.5066382507090E-02
(PID.TID 0000.0001) %MON advcfl_uvel_max              =   3.3453666471468E-02
(PID.TID 0000.0001) %MON advcfl_vvel_max              =   1.7827942624727E-02
(PID.TID 0000.0001) %MON advcfl_wvel_max              =   2.0930676919186E-01
(PID.TID 0000.0001) %MON advcfl_W_hf_max              =   1.4875656319693E-01
(PID.TID 0000.0001) %MON pe_b_mean                    =   1.8748706309469E-04
(PID.TID 0000.0001) %MON ke_max                       =   2.3752069294472E-02
(PID.TID 0000.0001) %MON ke_mean                      =   3.1302444271375E-04
(PID.TID 0000.0001) %MON ke_vol                       =   1.3226782436723E+18
(PID.TID 0000.0001) %MON vort_r_min                   =  -7.7291464501359E-07
(PID.TID 0000.0001) %MON vort_r_max                   =   6.2819263450027E-07
(PID.TID 0000.0001) %MON vort_a_mean                  =  -2.5205769221688E-05
(PID.TID 0000.0001) %MON vort_a_sd                    =   7.3402559675134E-05
(PID.TID 0000.0001) %MON vort_p_mean                  =  -3.1758669341067E-05
(PID.TID 0000.0001) %MON vort_p_sd                    =   1.3126214297585E-04
(PID.TID 0000.0001) %MON surfExpan_theta_mean         =  -9.3872828484540E-07
(PID.TID 0000.0001) %MON surfExpan_salt_mean          =  -1.8979220426470E-07
(PID.TID 0000.0001) // =======================================================
(PID.TID 0000.0001) // End MONITOR dynamic field statistics
(PID.TID 0000.0001) // =======================================================
time,SST,SSS,fu,fv,Q,E-P,i0,i1,a,b =   1.4688E+06  8.5907E-01  3.4695E+01 -3.4220E-02 -5.4615E-02  2.6408E+02  0.0000E+00     1     2  6.6667E-02  9.3333E-01
time,fu0,fu1,fu =   1.4688E+06 -3.5633E-02 -1.4435E-02 -3.4220E-02  6.6667E-02  9.3333E-01
 cg2d: Sum(rhs),rhsMax =  -8.37524494201602E-15  1.04409397634177E+01
(PID.TID 0000.0001)                    cg2d_init_res =    6.48587778076756E-01
(PID.TID 0000.0001)                       cg2d_iters =    25
(PID.TID 0000.0001)                         cg2d_res =    3.48262299995085E-14
(PID.TID 0000.0001) // =======================================================
(PID.TID 0000.0001) // Begin MONITOR dynamic field statistics
(PID.TID 0000.0001) // =======================================================
(PID.TID 0000.0001) %MON time_tsnumber                =                    35
(PID.TID 0000.0001) %MON time_secondsf                =   1.5120000000000E+06
(PID.TID 0000.0001) %MON dynstat_eta_max              =   1.1663992462609E+00
(PID.TID 0000.0001) %MON dynstat_eta_min              =  -1.0578328656149E+00
(PID.TID 0000.0001) %MON dynstat_eta_mean             =  -1.1134843381197E-16
(PID.TID 0000.0001) %MON dynstat_eta_sd               =   3.8471703866983E-01
(PID.TID 0000.0001) %MON dynstat_eta_del2             =   1.8968055925887E-02
(PID.TID 0000.0001) %MON dynstat_uvel_max             =   2.2419147164127E-01
(PID.TID 0000.0001) %MON dynstat_uvel_min             =  -1.9776513057455E-01
(PID.TID 0000.0001) %MON dynstat_uvel_mean            =  -3.5600161292785E-03
(PID.TID 0000.0001) %MON dynstat_uvel_sd              =   1.9392570077708E-02
(PID.TID 0000.0001) %MON dynstat_uvel_del2            =   5.7080059657497E-03
(PID.TID 0000.0001) %MON dynstat_vvel_max             =   1.9198363723761E-01
(PID.TID 0000.0001) %MON dynstat_vvel_min             =  -1.5752541863854E-01
(PID.TID 0000.0001) %MON dynstat_vvel_mean            =   3.7676475355769E-03
(PID.TID 0000.0001) %MON dynstat_vvel_sd              =   1.6557457454054E-02
(PID.TID 0000.0001) %MON dynstat_vvel_del2            =   5.2648408029908E-03
(PID.TID 0000.0001) %MON dynstat_wvel_max             =   3.4804530786264E-04
(PID.TID 0000.0001) %MON dynstat_wvel_min             =  -3.5977252522297E-04
(PID.TID 0000.0001) %MON dynstat_wvel_mean            =  -4.8552400133432E-22
(PID.TID 0000.0001) %MON dynstat_wvel_sd              =   3.1535609882196E-05
(PID.TID 0000.0001) %MON dynstat_wvel_del2            =   1.2452821985107E-05
(PID.TID 0000.0001) %MON dynstat_theta_max            =   2.9532184131279E+01
(PID.TID 0000.0001) %MON dynstat_theta_min            =  -1.9430662760423E+00
(PID.TID 0000.0001) %MON dynstat_theta_mean           =   3.5941374661466E+00
(PID.TID 0000.0001) %MON dynstat_theta_sd             =   4.3462757536243E+00
(PID.TID 0000.0001) %MON dynstat_theta_del2           =   1.3404369608051E-01
(PID.TID 0000.0001) %MON dynstat_salt_max             =   3.7407187974859E+01
(PID.TID 0000.0001) %MON dynstat_salt_min             =   2.9804372197707E+01
(PID.TID 0000.0001) %MON dynstat_salt_mean            =   3.4716385246611E+01
(PID.TID 0000.0001) %MON dynstat_salt_sd              =   2.9442592164249E-01
(PID.TID 0000.0001) %MON dynstat_salt_del2            =   2.5046477818479E-02
(PID.TID 0000.0001) %MON advcfl_uvel_max              =   3.3260379021603E-02
(PID.TID 0000.0001) %MON advcfl_vvel_max              =   1.8649670833953E-02
(PID.TID 0000.0001) %MON advcfl_wvel_max              =   2.2058814753106E-01
(PID.TID 0000.0001) %MON advcfl_W_hf_max              =   1.5629911894057E-01
(PID.TID 0000.0001) %MON pe_b_mean                    =   1.8939305192574E-04
(PID.TID 0000.0001) %MON ke_max                       =   2.3163535970774E-02
(PID.TID 0000.0001) %MON ke_mean                      =   3.0606347485837E-04
(PID.TID 0000.0001) %MON ke_vol                       =   1.3226782436723E+18
(PID.TID 0000.0001) %MON vort_r_min                   =  -7.8152644873266E-07
(PID.TID 0000.0001) %MON vort_r_max                   =   6.3110654574942E-07
(PID.TID 0000.0001) %MON vort_a_mean                  =  -2.5205769229550E-05
(PID.TID 0000.0001) %MON vort_a_sd                    =   7.3402616058954E-05
(PID.TID 0000.0001) %MON vort_p_mean                  =  -3.1758669350973E-05
(PID.TID 0000.0001) %MON vort_p_sd                    =   1.3126227689501E-04
(PID.TID 0000.0001) %MON surfExpan_theta_mean         =   1.1109141183170E-06
(PID.TID 0000.0001) %MON surfExpan_salt_mean          =   2.9659019497945E-07
(PID.TID 0000.0001) // =======================================================
(PID.TID 0000.0001) // End MONITOR dynamic field statistics
(PID.TID 0000.0001) // =======================================================
time,SST,SSS,fu,fv,Q,E-P,i0,i1,a,b =   1.5120E+06  8.3424E-01  3.4690E+01 -3.3866E-02 -5.3955E-02  2.6366E+02  0.0000E+00     1     2  8.3333E-02  9.1667E-01
time,fu0,fu1,fu =   1.5120E+06 -3.5633E-02 -1.4435E-02 -3.3866E-02  8.3333E-02  9.1667E-01
 cg2d: Sum(rhs),rhsMax =   1.41373024398206E-13  1.03873045656276E+01
(PID.TID 0000.0001)                    cg2d_init_res =    6.29996078945972E-01
(PID.TID 0000.0001)                       cg2d_iters =    25
(PID.TID 0000.0001)                         cg2d_res =    3.67656196488184E-14
(PID.TID 0000.0001) // =======================================================
(PID.TID 0000.0001) // Begin MONITOR dynamic field statistics
(PID.TID 0000.0001) // =======================================================
(PID.TID 0000.0001) %MON time_tsnumber                =                    36
(PID.TID 0000.0001) %MON time_secondsf                =   1.5552000000000E+06
(PID.TID 0000.0001) %MON dynstat_eta_max              =   1.1596895509069E+00
(PID.TID 0000.0001) %MON dynstat_eta_min              =  -1.0578993750333E+00
(PID.TID 0000.0001) %MON dynstat_eta_mean             =  -3.1459315161200E-17
(PID.TID 0000.0001) %MON dynstat_eta_sd               =   3.8706581577259E-01
(PID.TID 0000.0001) %MON dynstat_eta_del2             =   1.8909520192032E-02
(PID.TID 0000.0001) %MON dynstat_uvel_max             =   2.2660784970155E-01
(PID.TID 0000.0001) %MON dynstat_uvel_min             =  -1.9662237763982E-01
(PID.TID 0000.0001) %MON dynstat_uvel_mean            =  -3.3725908895626E-03
(PID.TID 0000.0001) %MON dynstat_uvel_sd              =   1.9054580693086E-02
(PID.TID 0000.0001) %MON dynstat_uvel_del2            =   5.7268174148242E-03
(PID.TID 0000.0001) %MON dynstat_vvel_max             =   1.9867568640011E-01
(PID.TID 0000.0001) %MON dynstat_vvel_min             =  -1.6259205334366E-01
(PID.TID 0000.0001) %MON dynstat_vvel_mean            =   3.8116971765030E-03
(PID.TID 0000.0001) %MON dynstat_vvel_sd              =   1.6496197153638E-02
(PID.TID 0000.0001) %MON dynstat_vvel_del2            =   5.2517487223097E-03
(PID.TID 0000.0001) %MON dynstat_wvel_max             =   3.3122454062778E-04
(PID.TID 0000.0001) %MON dynstat_wvel_min             =  -3.5082643485203E-04
(PID.TID 0000.0001) %MON dynstat_wvel_mean            =  -1.5829937487297E-22
(PID.TID 0000.0001) %MON dynstat_wvel_sd              =   3.1391853206842E-05
(PID.TID 0000.0001) %MON dynstat_wvel_del2            =   1.2437245908358E-05
(PID.TID 0000.0001) %MON dynstat_theta_max            =   2.9542340035258E+01
(PID.TID 0000.0001) %MON dynstat_theta_min            =  -1.9464436713541E+00
(PID.TID 0000.0001) %MON dynstat_theta_mean           =   3.5941331668274E+00
(PID.TID 0000.0001) %MON dynstat_theta_sd             =   4.3467745405328E+00
(PID.TID 0000.0001) %MON dynstat_theta_del2           =   1.3394011660397E-01
(PID.TID 0000.0001) %MON dynstat_salt_max             =   3.7405706287360E+01
(PID.TID 0000.0001) %MON dynstat_salt_min             =   2.9804847433332E+01
(PID.TID 0000.0001) %MON dynstat_salt_mean            =   3.4716373336059E+01
(PID.TID 0000.0001) %MON dynstat_salt_sd              =   2.9435774534417E-01
(PID.TID 0000.0001) %MON dynstat_salt_del2            =   2.5023293407256E-02
(PID.TID 0000.0001) %MON advcfl_uvel_max              =   3.3017217006002E-02
(PID.TID 0000.0001) %MON advcfl_vvel_max              =   1.9299749746308E-02
(PID.TID 0000.0001) %MON advcfl_wvel_max              =   2.2530716728814E-01
(PID.TID 0000.0001) %MON advcfl_W_hf_max              =   1.5919401570376E-01
(PID.TID 0000.0001) %MON pe_b_mean                    =   1.9171267879611E-04
(PID.TID 0000.0001) %MON ke_max                       =   2.2368429841358E-02
(PID.TID 0000.0001) %MON ke_mean                      =   2.9881029233289E-04
(PID.TID 0000.0001) %MON ke_vol                       =   1.3226782436723E+18
(PID.TID 0000.0001) %MON vort_r_min                   =  -7.9043429545748E-07
(PID.TID 0000.0001) %MON vort_r_max                   =   6.3544218868651E-07
(PID.TID 0000.0001) %MON vort_a_mean                  =  -2.5205769228641E-05
(PID.TID 0000.0001) %MON vort_a_sd                    =   7.3402665216093E-05
(PID.TID 0000.0001) %MON vort_p_mean                  =  -3.1758669349828E-05
(PID.TID 0000.0001) %MON vort_p_sd                    =   1.3126239851790E-04
(PID.TID 0000.0001) %MON surfExpan_theta_mean         =   3.1843035913980E-06
(PID.TID 0000.0001) %MON surfExpan_salt_mean          =   7.4919974298200E-07
(PID.TID 0000.0001) // =======================================================
(PID.TID 0000.0001) // End MONITOR dynamic field statistics
(PID.TID 0000.0001) // =======================================================
(PID.TID 0000.0001)  MDS_WRITE_RL_VEC: irec =  00000007   00066240
(PID.TID 0000.0001)  MDS_WRITE_RL_VEC: irec =  00000007   00066240
(PID.TID 0000.0001)  MDS_WRITE_RL_VEC: irec =  00000007   00066240
(PID.TID 0000.0001)  MDS_WRITE_RL_VEC: irec =  00000007   00066240
(PID.TID 0000.0001)  MDS_WRITE_RL_VEC: irec =  00000007   00066240
(PID.TID 0000.0001)  MDS_WRITE_RL_VEC: irec =  00000007   00066240
(PID.TID 0000.0001)  MDS_WRITE_RL_VEC: irec =  00000007   00066240
(PID.TID 0000.0001)  MDS_WRITE_RL_VEC: irec =  00000007   00066240
(PID.TID 0000.0001)  MDS_WRITE_RL_VEC: irec =  00000007   00066240
(PID.TID 0000.0001)  MDS_WRITE_RL_VEC: irec =  00000007   00066240
(PID.TID 0000.0001)  MDS_WRITE_RL_VEC: irec =  00000007   00066240
(PID.TID 0000.0001)  MDS_WRITE_RL_VEC: irec =  00000007   00004416
(PID.TID 0000.0001)  MDS_WRITE_RL_VEC: irec =  00000007   00066240
(PID.TID 0000.0001)  MDS_WRITE_RL_VEC: irec =  00000007   00004416
(PID.TID 0000.0001)  MDS_WRITE_RL_VEC: irec =  00000007   00004416
(PID.TID 0000.0001)  MDS_WRITE_RL_VEC: irec =  00000007   00004416
(PID.TID 0000.0001)  MDS_WRITE_RL_VEC: irec =  00000007   00004416
(PID.TID 0000.0001)  MDS_WRITE_RL_VEC: irec =  00000007   00004416
(PID.TID 0000.0001)  MDS_WRITE_RL_VEC: irec =  00000007   00004416
(PID.TID 0000.0001)  MDS_WRITE_RL_VEC: irec =  00000007   00004416
(PID.TID 0000.0001)  MDS_WRITE_RL_VEC: irec =  00000007   00004416
(PID.TID 0000.0001)  MDS_WRITE_RL_VEC: irec =  00000007   00004416
(PID.TID 0000.0001)  MDS_WRITE_RL_VEC: irec =  00000007   00004416
(PID.TID 0000.0001)  MDS_WRITE_RL_VEC: irec =  00000007   00004416
(PID.TID 0000.0001)  MDS_WRITE_RL_VEC: irec =  00000007   00004416
(PID.TID 0000.0001)  MDS_WRITE_RL_VEC: irec =  00000007   00004416
(PID.TID 0000.0001)  MDS_WRITE_RL_VEC: irec =  00000007   00004416
(PID.TID 0000.0001)  MDS_WRITE_RL_VEC: irec =  00000007   00004416
(PID.TID 0000.0001)  MDS_WRITE_RL_VEC: irec =  00000007   00004416
(PID.TID 0000.0001)  MDS_WRITE_RL_VEC: irec =  00000007   00004416
(PID.TID 0000.0001)  MDS_WRITE_RL_VEC: irec =  00000007   00004416
time,SST,SSS,fu,fv,Q,E-P,i0,i1,a,b =   1.5552E+06  8.0940E-01  3.4685E+01 -3.3513E-02 -5.3295E-02  2.6324E+02  0.0000E+00     1     2  1.0000E-01  9.0000E-01
time,fu0,fu1,fu =   1.5552E+06 -3.5633E-02 -1.4435E-02 -3.3513E-02  1.0000E-01  9.0000E-01
 cg2d: Sum(rhs),rhsMax =   2.09464390277248E-13  1.02380208453540E+01
(PID.TID 0000.0001)                    cg2d_init_res =    6.16439655321187E-01
(PID.TID 0000.0001)                       cg2d_iters =    25
(PID.TID 0000.0001)                         cg2d_res =    3.81959122432533E-14
(PID.TID 0000.0001) // =======================================================
(PID.TID 0000.0001) // Begin MONITOR dynamic field statistics
(PID.TID 0000.0001) // =======================================================
(PID.TID 0000.0001) %MON time_tsnumber                =                    37
(PID.TID 0000.0001) %MON time_secondsf                =   1.5984000000000E+06
(PID.TID 0000.0001) %MON dynstat_eta_max              =   1.1423477939690E+00
(PID.TID 0000.0001) %MON dynstat_eta_min              =  -1.0548800137690E+00
(PID.TID 0000.0001) %MON dynstat_eta_mean             =  -1.5037418092356E-16
(PID.TID 0000.0001) %MON dynstat_eta_sd               =   3.8968621361785E-01
(PID.TID 0000.0001) %MON dynstat_eta_del2             =   1.8780483921418E-02
(PID.TID 0000.0001) %MON dynstat_uvel_max             =   2.2607849357212E-01
(PID.TID 0000.0001) %MON dynstat_uvel_min             =  -1.9506271738239E-01
(PID.TID 0000.0001) %MON dynstat_uvel_mean            =  -3.2182486141984E-03
(PID.TID 0000.0001) %MON dynstat_uvel_sd              =   1.8724449989942E-02
(PID.TID 0000.0001) %MON dynstat_uvel_del2            =   5.7404519115191E-03
(PID.TID 0000.0001) %MON dynstat_vvel_max             =   2.0348662520967E-01
(PID.TID 0000.0001) %MON dynstat_vvel_min             =  -1.6469879320499E-01
(PID.TID 0000.0001) %MON dynstat_vvel_mean            =   3.8176829035739E-03
(PID.TID 0000.0001) %MON dynstat_vvel_sd              =   1.6408923239569E-02
(PID.TID 0000.0001) %MON dynstat_vvel_del2            =   5.2397305348885E-03
(PID.TID 0000.0001) %MON dynstat_wvel_max             =   3.1298872744260E-04
(PID.TID 0000.0001) %MON dynstat_wvel_min             =  -3.4081622035382E-04
(PID.TID 0000.0001) %MON dynstat_wvel_mean            =   5.0391754314192E-22
(PID.TID 0000.0001) %MON dynstat_wvel_sd              =   3.1257588811505E-05
(PID.TID 0000.0001) %MON dynstat_wvel_del2            =   1.2437995151493E-05
(PID.TID 0000.0001) %MON dynstat_theta_max            =   2.9551026956572E+01
(PID.TID 0000.0001) %MON dynstat_theta_min            =  -1.9469980188850E+00
(PID.TID 0000.0001) %MON dynstat_theta_mean           =   3.5941072927753E+00
(PID.TID 0000.0001) %MON dynstat_theta_sd             =   4.3471939098143E+00
(PID.TID 0000.0001) %MON dynstat_theta_del2           =   1.3381834395101E-01
(PID.TID 0000.0001) %MON dynstat_salt_max             =   3.7404098615670E+01
(PID.TID 0000.0001) %MON dynstat_salt_min             =   2.9805266571873E+01
(PID.TID 0000.0001) %MON dynstat_salt_mean            =   3.4716357291040E+01
(PID.TID 0000.0001) %MON dynstat_salt_sd              =   2.9428845607774E-01
(PID.TID 0000.0001) %MON dynstat_salt_del2            =   2.4998797235699E-02
(PID.TID 0000.0001) %MON advcfl_uvel_max              =   3.2735586040847E-02
(PID.TID 0000.0001) %MON advcfl_vvel_max              =   1.9767093872566E-02
(PID.TID 0000.0001) %MON advcfl_wvel_max              =   2.2331709524040E-01
(PID.TID 0000.0001) %MON advcfl_W_hf_max              =   1.5735187155350E-01
(PID.TID 0000.0001) %MON pe_b_mean                    =   1.9431721758936E-04
(PID.TID 0000.0001) %MON ke_max                       =   2.1379479069867E-02
(PID.TID 0000.0001) %MON ke_mean                      =   2.9141315971486E-04
(PID.TID 0000.0001) %MON ke_vol                       =   1.3226782436723E+18
(PID.TID 0000.0001) %MON vort_r_min                   =  -7.9934624407737E-07
(PID.TID 0000.0001) %MON vort_r_max                   =   6.4092311699330E-07
(PID.TID 0000.0001) %MON vort_a_mean                  =  -2.5205769218898E-05
(PID.TID 0000.0001) %MON vort_a_sd                    =   7.3402707525955E-05
(PID.TID 0000.0001) %MON vort_p_mean                  =  -3.1758669337552E-05
(PID.TID 0000.0001) %MON vort_p_sd                    =   1.3126250838102E-04
(PID.TID 0000.0001) %MON surfExpan_theta_mean         =   5.1819216048801E-06
(PID.TID 0000.0001) %MON surfExpan_salt_mean          =   1.1498041862631E-06
(PID.TID 0000.0001) // =======================================================
(PID.TID 0000.0001) // End MONITOR dynamic field statistics
(PID.TID 0000.0001) // =======================================================
time,SST,SSS,fu,fv,Q,E-P,i0,i1,a,b =   1.5984E+06  7.8456E-01  3.4680E+01 -3.3160E-02 -5.2634E-02  2.6282E+02  0.0000E+00     1     2  1.1667E-01  8.8333E-01
time,fu0,fu1,fu =   1.5984E+06 -3.5633E-02 -1.4435E-02 -3.3160E-02  1.1667E-01  8.8333E-01
 cg2d: Sum(rhs),rhsMax =   1.27391153181833E-13  9.99413307526834E+00
(PID.TID 0000.0001)                    cg2d_init_res =    6.10424502280089E-01
(PID.TID 0000.0001)                       cg2d_iters =    25
(PID.TID 0000.0001)                         cg2d_res =    3.93399285610672E-14
(PID.TID 0000.0001) // =======================================================
(PID.TID 0000.0001) // Begin MONITOR dynamic field statistics
(PID.TID 0000.0001) // =======================================================
(PID.TID 0000.0001) %MON time_tsnumber                =                    38
(PID.TID 0000.0001) %MON time_secondsf                =   1.6416000000000E+06
(PID.TID 0000.0001) %MON dynstat_eta_max              =   1.1144876982229E+00
(PID.TID 0000.0001) %MON dynstat_eta_min              =  -1.0487793875637E+00
(PID.TID 0000.0001) %MON dynstat_eta_mean             =  -5.1186336863306E-17
(PID.TID 0000.0001) %MON dynstat_eta_sd               =   3.9244128104176E-01
(PID.TID 0000.0001) %MON dynstat_eta_del2             =   1.8697790235654E-02
(PID.TID 0000.0001) %MON dynstat_uvel_max             =   2.2258888380809E-01
(PID.TID 0000.0001) %MON dynstat_uvel_min             =  -1.9310584467456E-01
(PID.TID 0000.0001) %MON dynstat_uvel_mean            =  -3.0926637789864E-03
(PID.TID 0000.0001) %MON dynstat_uvel_sd              =   1.8410653915340E-02
(PID.TID 0000.0001) %MON dynstat_uvel_del2            =   5.7490503791129E-03
(PID.TID 0000.0001) %MON dynstat_vvel_max             =   2.0633809969237E-01
(PID.TID 0000.0001) %MON dynstat_vvel_min             =  -1.6380536246568E-01
(PID.TID 0000.0001) %MON dynstat_vvel_mean            =   3.7841463978999E-03
(PID.TID 0000.0001) %MON dynstat_vvel_sd              =   1.6298096179231E-02
(PID.TID 0000.0001) %MON dynstat_vvel_del2            =   5.2285184547316E-03
(PID.TID 0000.0001) %MON dynstat_wvel_max             =   2.9353785331779E-04
(PID.TID 0000.0001) %MON dynstat_wvel_min             =  -3.2997348496859E-04
(PID.TID 0000.0001) %MON dynstat_wvel_mean            =  -2.4199327216066E-22
(PID.TID 0000.0001) %MON dynstat_wvel_sd              =   3.1131124675199E-05
(PID.TID 0000.0001) %MON dynstat_wvel_del2            =   1.2438286092953E-05
(PID.TID 0000.0001) %MON dynstat_theta_max            =   2.9558225525673E+01
(PID.TID 0000.0001) %MON dynstat_theta_min            =  -1.9470284746042E+00
(PID.TID 0000.0001) %MON dynstat_theta_mean           =   3.5940620062446E+00
(PID.TID 0000.0001) %MON dynstat_theta_sd             =   4.3475228051977E+00
(PID.TID 0000.0001) %MON dynstat_theta_del2           =   1.3369182524800E-01
(PID.TID 0000.0001) %MON dynstat_salt_max             =   3.7402359494110E+01
(PID.TID 0000.0001) %MON dynstat_salt_min             =   2.9805616011958E+01
(PID.TID 0000.0001) %MON dynstat_salt_mean            =   3.4716337963845E+01
(PID.TID 0000.0001) %MON dynstat_salt_sd              =   2.9421878399686E-01
(PID.TID 0000.0001) %MON dynstat_salt_del2            =   2.4970706327132E-02
(PID.TID 0000.0001) %MON advcfl_uvel_max              =   3.2426793760240E-02
(PID.TID 0000.0001) %MON advcfl_vvel_max              =   2.0044091752484E-02
(PID.TID 0000.0001) %MON advcfl_wvel_max              =   2.1469283373477E-01
(PID.TID 0000.0001) %MON advcfl_W_hf_max              =   1.5083990904763E-01
(PID.TID 0000.0001) %MON pe_b_mean                    =   1.9707456180500E-04
(PID.TID 0000.0001) %MON ke_max                       =   2.0216940195134E-02
(PID.TID 0000.0001) %MON ke_mean                      =   2.8401722895087E-04
(PID.TID 0000.0001) %MON ke_vol                       =   1.3226782436723E+18
(PID.TID 0000.0001) %MON vort_r_min                   =  -8.0794646089211E-07
(PID.TID 0000.0001) %MON vort_r_max                   =   6.4718903513818E-07
(PID.TID 0000.0001) %MON vort_a_mean                  =  -2.5205769200741E-05
(PID.TID 0000.0001) %MON vort_a_sd                    =   7.3402743549886E-05
(PID.TID 0000.0001) %MON vort_p_mean                  =  -3.1758669314675E-05
(PID.TID 0000.0001) %MON vort_p_sd                    =   1.3126260717936E-04
(PID.TID 0000.0001) %MON surfExpan_theta_mean         =   7.0230340772037E-06
(PID.TID 0000.0001) %MON surfExpan_salt_mean          =   1.4840124948354E-06
(PID.TID 0000.0001) // =======================================================
(PID.TID 0000.0001) // End MONITOR dynamic field statistics
(PID.TID 0000.0001) // =======================================================
time,SST,SSS,fu,fv,Q,E-P,i0,i1,a,b =   1.6416E+06  7.5972E-01  3.4675E+01 -3.2807E-02 -5.1974E-02  2.6240E+02  0.0000E+00     1     2  1.3333E-01  8.6667E-01
time,fu0,fu1,fu =   1.6416E+06 -3.5633E-02 -1.4435E-02 -3.2807E-02  1.3333E-01  8.6667E-01
 cg2d: Sum(rhs),rhsMax =   2.29295749054614E-13  9.65836288960803E+00
(PID.TID 0000.0001)                    cg2d_init_res =    6.14347671095455E-01
(PID.TID 0000.0001)                       cg2d_iters =    25
(PID.TID 0000.0001)                         cg2d_res =    4.03565581415954E-14
(PID.TID 0000.0001) // =======================================================
(PID.TID 0000.0001) // Begin MONITOR dynamic field statistics
(PID.TID 0000.0001) // =======================================================
(PID.TID 0000.0001) %MON time_tsnumber                =                    39
(PID.TID 0000.0001) %MON time_secondsf                =   1.6848000000000E+06
(PID.TID 0000.0001) %MON dynstat_eta_max              =   1.0764072653806E+00
(PID.TID 0000.0001) %MON dynstat_eta_min              =  -1.0401513472323E+00
(PID.TID 0000.0001) %MON dynstat_eta_mean             =   1.3103690076368E-16
(PID.TID 0000.0001) %MON dynstat_eta_sd               =   3.9520841572425E-01
(PID.TID 0000.0001) %MON dynstat_eta_del2             =   1.8718292822425E-02
(PID.TID 0000.0001) %MON dynstat_uvel_max             =   2.1619153178288E-01
(PID.TID 0000.0001) %MON dynstat_uvel_min             =  -1.9076612649468E-01
(PID.TID 0000.0001) %MON dynstat_uvel_mean            =  -2.9910075591409E-03
(PID.TID 0000.0001) %MON dynstat_uvel_sd              =   1.8120119025430E-02
(PID.TID 0000.0001) %MON dynstat_uvel_del2            =   5.7500690672668E-03
(PID.TID 0000.0001) %MON dynstat_vvel_max             =   2.0719014684311E-01
(PID.TID 0000.0001) %MON dynstat_vvel_min             =  -1.5994263830986E-01
(PID.TID 0000.0001) %MON dynstat_vvel_mean            =   3.7107528811047E-03
(PID.TID 0000.0001) %MON dynstat_vvel_sd              =   1.6166752138274E-02
(PID.TID 0000.0001) %MON dynstat_vvel_del2            =   5.2158737992070E-03
(PID.TID 0000.0001) %MON dynstat_wvel_max             =   2.7307130171417E-04
(PID.TID 0000.0001) %MON dynstat_wvel_min             =  -3.1854133988416E-04
(PID.TID 0000.0001) %MON dynstat_wvel_mean            =  -4.0300836526340E-22
(PID.TID 0000.0001) %MON dynstat_wvel_sd              =   3.1009851620501E-05
(PID.TID 0000.0001) %MON dynstat_wvel_del2            =   1.2438440271979E-05
(PID.TID 0000.0001) %MON dynstat_theta_max            =   2.9563931489261E+01
(PID.TID 0000.0001) %MON dynstat_theta_min            =  -1.9468017811948E+00
(PID.TID 0000.0001) %MON dynstat_theta_mean           =   3.5940001313168E+00
(PID.TID 0000.0001) %MON dynstat_theta_sd             =   4.3477532402679E+00
(PID.TID 0000.0001) %MON dynstat_theta_del2           =   1.3358147551474E-01
(PID.TID 0000.0001) %MON dynstat_salt_max             =   3.7400481827536E+01
(PID.TID 0000.0001) %MON dynstat_salt_min             =   2.9805884941031E+01
(PID.TID 0000.0001) %MON dynstat_salt_mean            =   3.4716316290614E+01
(PID.TID 0000.0001) %MON dynstat_salt_sd              =   2.9414919474477E-01
(PID.TID 0000.0001) %MON dynstat_salt_del2            =   2.4941249959881E-02
(PID.TID 0000.0001) %MON advcfl_uvel_max              =   3.2101756527689E-02
(PID.TID 0000.0001) %MON advcfl_vvel_max              =   2.0126861300582E-02
(PID.TID 0000.0001) %MON advcfl_wvel_max              =   1.9972943480288E-01
(PID.TID 0000.0001) %MON advcfl_W_hf_max              =   1.5676677661286E-01
(PID.TID 0000.0001) %MON pe_b_mean                    =   1.9986353671964E-04
(PID.TID 0000.0001) %MON ke_max                       =   1.8907654144993E-02
(PID.TID 0000.0001) %MON ke_mean                      =   2.7675312446239E-04
(PID.TID 0000.0001) %MON ke_vol                       =   1.3226782436723E+18
(PID.TID 0000.0001) %MON vort_r_min                   =  -8.1591073118380E-07
(PID.TID 0000.0001) %MON vort_r_max                   =   6.5382081952276E-07
(PID.TID 0000.0001) %MON vort_a_mean                  =  -2.5205769175049E-05
(PID.TID 0000.0001) %MON vort_a_sd                    =   7.3402773994484E-05
(PID.TID 0000.0001) %MON vort_p_mean                  =  -3.1758669282304E-05
(PID.TID 0000.0001) %MON vort_p_sd                    =   1.3126269577791E-04
(PID.TID 0000.0001) %MON surfExpan_theta_mean         =   8.6460698325413E-06
(PID.TID 0000.0001) %MON surfExpan_salt_mean          =   1.7416884179929E-06
(PID.TID 0000.0001) // =======================================================
(PID.TID 0000.0001) // End MONITOR dynamic field statistics
(PID.TID 0000.0001) // =======================================================
time,SST,SSS,fu,fv,Q,E-P,i0,i1,a,b =   1.6848E+06  7.3488E-01  3.4671E+01 -3.2453E-02 -5.1313E-02  2.6198E+02  0.0000E+00     1     2  1.5000E-01  8.5000E-01
time,fu0,fu1,fu =   1.6848E+06 -3.5633E-02 -1.4435E-02 -3.2453E-02  1.5000E-01  8.5000E-01
 cg2d: Sum(rhs),rhsMax =  -7.15955073005148E-14  9.23489431210911E+00
(PID.TID 0000.0001)                    cg2d_init_res =    6.30132621173186E-01
(PID.TID 0000.0001)                       cg2d_iters =    25
(PID.TID 0000.0001)                         cg2d_res =    4.13422161600659E-14
(PID.TID 0000.0001) // =======================================================
(PID.TID 0000.0001) // Begin MONITOR dynamic field statistics
(PID.TID 0000.0001) // =======================================================
(PID.TID 0000.0001) %MON time_tsnumber                =                    40
(PID.TID 0000.0001) %MON time_secondsf                =   1.7280000000000E+06
(PID.TID 0000.0001) %MON dynstat_eta_max              =   1.0285673724357E+00
(PID.TID 0000.0001) %MON dynstat_eta_min              =  -1.0642124943167E+00
(PID.TID 0000.0001) %MON dynstat_eta_mean             =   2.1331026107072E-16
(PID.TID 0000.0001) %MON dynstat_eta_sd               =   3.9788880475741E-01
(PID.TID 0000.0001) %MON dynstat_eta_del2             =   1.8737124894412E-02
(PID.TID 0000.0001) %MON dynstat_uvel_max             =   2.0700199908229E-01
(PID.TID 0000.0001) %MON dynstat_uvel_min             =  -1.9766003538861E-01
(PID.TID 0000.0001) %MON dynstat_uvel_mean            =  -2.9081828850417E-03
(PID.TID 0000.0001) %MON dynstat_uvel_sd              =   1.7857869539560E-02
(PID.TID 0000.0001) %MON dynstat_uvel_del2            =   5.7449135849099E-03
(PID.TID 0000.0001) %MON dynstat_vvel_max             =   2.0604219262264E-01
(PID.TID 0000.0001) %MON dynstat_vvel_min             =  -1.5321185022749E-01
(PID.TID 0000.0001) %MON dynstat_vvel_mean            =   3.5981988563496E-03
(PID.TID 0000.0001) %MON dynstat_vvel_sd              =   1.6018283989211E-02
(PID.TID 0000.0001) %MON dynstat_vvel_del2            =   5.2042786247671E-03
(PID.TID 0000.0001) %MON dynstat_wvel_max             =   2.6205599138500E-04
(PID.TID 0000.0001) %MON dynstat_wvel_min             =  -3.0675996219069E-04
(PID.TID 0000.0001) %MON dynstat_wvel_mean            =  -5.9947350305182E-22
(PID.TID 0000.0001) %MON dynstat_wvel_sd              =   3.0889150451436E-05
(PID.TID 0000.0001) %MON dynstat_wvel_del2            =   1.2441290072985E-05
(PID.TID 0000.0001) %MON dynstat_theta_max            =   2.9568149524853E+01
(PID.TID 0000.0001) %MON dynstat_theta_min            =  -1.9463463845599E+00
(PID.TID 0000.0001) %MON dynstat_theta_mean           =   3.5939248593977E+00
(PID.TID 0000.0001) %MON dynstat_theta_sd             =   4.3478810707006E+00
(PID.TID 0000.0001) %MON dynstat_theta_del2           =   1.3351999771653E-01
(PID.TID 0000.0001) %MON dynstat_salt_max             =   3.7398461415302E+01
(PID.TID 0000.0001) %MON dynstat_salt_min             =   2.9806065622264E+01
(PID.TID 0000.0001) %MON dynstat_salt_mean            =   3.4716293242518E+01
(PID.TID 0000.0001) %MON dynstat_salt_sd              =   2.9407976788519E-01
(PID.TID 0000.0001) %MON dynstat_salt_del2            =   2.4912457953552E-02
(PID.TID 0000.0001) %MON advcfl_uvel_max              =   3.1770681748822E-02
(PID.TID 0000.0001) %MON advcfl_vvel_max              =   2.0015346753549E-02
(PID.TID 0000.0001) %MON advcfl_wvel_max              =   1.7893358388794E-01
(PID.TID 0000.0001) %MON advcfl_W_hf_max              =   1.6059435294595E-01
(PID.TID 0000.0001) %MON pe_b_mean                    =   2.0258376568265E-04
(PID.TID 0000.0001) %MON ke_max                       =   1.8285186956629E-02
(PID.TID 0000.0001) %MON ke_mean                      =   2.6973000708912E-04
(PID.TID 0000.0001) %MON ke_vol                       =   1.3226782436723E+18
(PID.TID 0000.0001) %MON vort_r_min                   =  -8.2291933562782E-07
(PID.TID 0000.0001) %MON vort_r_max                   =   6.6036355396376E-07
(PID.TID 0000.0001) %MON vort_a_mean                  =  -2.5205769143016E-05
(PID.TID 0000.0001) %MON vort_a_sd                    =   7.3402799673012E-05
(PID.TID 0000.0001) %MON vort_p_mean                  =  -3.1758669241943E-05
(PID.TID 0000.0001) %MON vort_p_sd                    =   1.3126277518423E-04
(PID.TID 0000.0001) %MON surfExpan_theta_mean         =   1.0006287681945E-05
(PID.TID 0000.0001) %MON surfExpan_salt_mean          =   1.9166330178803E-06
(PID.TID 0000.0001) // =======================================================
(PID.TID 0000.0001) // End MONITOR dynamic field statistics
(PID.TID 0000.0001) // =======================================================
time,SST,SSS,fu,fv,Q,E-P,i0,i1,a,b =   1.7280E+06  7.1005E-01  3.4666E+01 -3.2100E-02 -5.0653E-02  2.6156E+02  0.0000E+00     1     2  1.6667E-01  8.3333E-01
time,fu0,fu1,fu =   1.7280E+06 -3.5633E-02 -1.4435E-02 -3.2100E-02  1.6667E-01  8.3333E-01
 cg2d: Sum(rhs),rhsMax =   8.67361737988404E-14  8.72915944336034E+00
(PID.TID 0000.0001)                    cg2d_init_res =    6.59061085241767E-01
(PID.TID 0000.0001)                       cg2d_iters =    25
(PID.TID 0000.0001)                         cg2d_res =    4.22749859015876E-14
(PID.TID 0000.0001) // =======================================================
(PID.TID 0000.0001) // Begin MONITOR dynamic field statistics
(PID.TID 0000.0001) // =======================================================
(PID.TID 0000.0001) %MON time_tsnumber                =                    41
(PID.TID 0000.0001) %MON time_secondsf                =   1.7712000000000E+06
(PID.TID 0000.0001) %MON dynstat_eta_max              =   9.7157014730430E-01
(PID.TID 0000.0001) %MON dynstat_eta_min              =  -1.0802093723411E+00
(PID.TID 0000.0001) %MON dynstat_eta_mean             =  -1.3209042659190E-16
(PID.TID 0000.0001) %MON dynstat_eta_sd               =   4.0041082138308E-01
(PID.TID 0000.0001) %MON dynstat_eta_del2             =   1.8808384054601E-02
(PID.TID 0000.0001) %MON dynstat_uvel_max             =   1.9960909271594E-01
(PID.TID 0000.0001) %MON dynstat_uvel_min             =  -2.0871084997114E-01
(PID.TID 0000.0001) %MON dynstat_uvel_mean            =  -2.8390554557612E-03
(PID.TID 0000.0001) %MON dynstat_uvel_sd              =   1.7626863879905E-02
(PID.TID 0000.0001) %MON dynstat_uvel_del2            =   5.7336714010251E-03
(PID.TID 0000.0001) %MON dynstat_vvel_max             =   2.0293250120925E-01
(PID.TID 0000.0001) %MON dynstat_vvel_min             =  -1.5273613271726E-01
(PID.TID 0000.0001) %MON dynstat_vvel_mean            =   3.4481026475180E-03
(PID.TID 0000.0001) %MON dynstat_vvel_sd              =   1.5856395834892E-02
(PID.TID 0000.0001) %MON dynstat_vvel_del2            =   5.1931317149471E-03
(PID.TID 0000.0001) %MON dynstat_wvel_max             =   2.6970433552164E-04
(PID.TID 0000.0001) %MON dynstat_wvel_min             =  -2.9485409841297E-04
(PID.TID 0000.0001) %MON dynstat_wvel_mean            =  -2.4402204746955E-22
(PID.TID 0000.0001) %MON dynstat_wvel_sd              =   3.0762414016956E-05
(PID.TID 0000.0001) %MON dynstat_wvel_del2            =   1.2436683533030E-05
(PID.TID 0000.0001) %MON dynstat_theta_max            =   2.9571084087273E+01
(PID.TID 0000.0001) %MON dynstat_theta_min            =  -1.9457008204609E+00
(PID.TID 0000.0001) %MON dynstat_theta_mean           =   3.5938394775105E+00
(PID.TID 0000.0001) %MON dynstat_theta_sd             =   4.3479098508457E+00
(PID.TID 0000.0001) %MON dynstat_theta_del2           =   1.3341460000824E-01
(PID.TID 0000.0001) %MON dynstat_salt_max             =   3.7396296594561E+01
(PID.TID 0000.0001) %MON dynstat_salt_min             =   2.9806153482791E+01
(PID.TID 0000.0001) %MON dynstat_salt_mean            =   3.4716269785966E+01
(PID.TID 0000.0001) %MON dynstat_salt_sd              =   2.9401242786534E-01
(PID.TID 0000.0001) %MON dynstat_salt_del2            =   2.4874634458870E-02
(PID.TID 0000.0001) %MON advcfl_uvel_max              =   3.1442827107110E-02
(PID.TID 0000.0001) %MON advcfl_vvel_max              =   1.9713265169465E-02
(PID.TID 0000.0001) %MON advcfl_wvel_max              =   1.8629060423166E-01
(PID.TID 0000.0001) %MON advcfl_W_hf_max              =   1.6002804884521E-01
(PID.TID 0000.0001) %MON pe_b_mean                    =   2.0516005760156E-04
(PID.TID 0000.0001) %MON ke_max                       =   1.8302378429494E-02
(PID.TID 0000.0001) %MON ke_mean                      =   2.6303398774166E-04
(PID.TID 0000.0001) %MON ke_vol                       =   1.3226782436723E+18
(PID.TID 0000.0001) %MON vort_r_min                   =  -8.2866356375029E-07
(PID.TID 0000.0001) %MON vort_r_max                   =   6.6634668406077E-07
(PID.TID 0000.0001) %MON vort_a_mean                  =  -2.5205769106052E-05
(PID.TID 0000.0001) %MON vort_a_sd                    =   7.3402821463552E-05
(PID.TID 0000.0001) %MON vort_p_mean                  =  -3.1758669195368E-05
(PID.TID 0000.0001) %MON vort_p_sd                    =   1.3126284648397E-04
(PID.TID 0000.0001) %MON surfExpan_theta_mean         =   1.1087259620524E-05
(PID.TID 0000.0001) %MON surfExpan_salt_mean          =   2.0081153521737E-06
(PID.TID 0000.0001) // =======================================================
(PID.TID 0000.0001) // End MONITOR dynamic field statistics
(PID.TID 0000.0001) // =======================================================
time,SST,SSS,fu,fv,Q,E-P,i0,i1,a,b =   1.7712E+06  6.8521E-01  3.4661E+01 -3.1747E-02 -4.9993E-02  2.6113E+02  0.0000E+00     1     2  1.8333E-01  8.1667E-01
time,fu0,fu1,fu =   1.7712E+06 -3.5633E-02 -1.4435E-02 -3.1747E-02  1.8333E-01  8.1667E-01
 cg2d: Sum(rhs),rhsMax =  -2.89004931097736E-13  8.14764791556401E+00
(PID.TID 0000.0001)                    cg2d_init_res =    7.01965840592900E-01
(PID.TID 0000.0001)                       cg2d_iters =    25
(PID.TID 0000.0001)                         cg2d_res =    4.30791737600664E-14
(PID.TID 0000.0001) // =======================================================
(PID.TID 0000.0001) // Begin MONITOR dynamic field statistics
(PID.TID 0000.0001) // =======================================================
(PID.TID 0000.0001) %MON time_tsnumber                =                    42
(PID.TID 0000.0001) %MON time_secondsf                =   1.8144000000000E+06
(PID.TID 0000.0001) %MON dynstat_eta_max              =   9.0613942378044E-01
(PID.TID 0000.0001) %MON dynstat_eta_min              =  -1.0864506756471E+00
(PID.TID 0000.0001) %MON dynstat_eta_mean             =  -1.4324407750546E-16
(PID.TID 0000.0001) %MON dynstat_eta_sd               =   4.0272822274137E-01
(PID.TID 0000.0001) %MON dynstat_eta_del2             =   1.8931130585447E-02
(PID.TID 0000.0001) %MON dynstat_uvel_max             =   1.9213235185539E-01
(PID.TID 0000.0001) %MON dynstat_uvel_min             =  -2.1685310975211E-01
(PID.TID 0000.0001) %MON dynstat_uvel_mean            =  -2.7786625242478E-03
(PID.TID 0000.0001) %MON dynstat_uvel_sd              =   1.7428044331837E-02
(PID.TID 0000.0001) %MON dynstat_uvel_del2            =   5.7156345242689E-03
(PID.TID 0000.0001) %MON dynstat_vvel_max             =   1.9793625363776E-01
(PID.TID 0000.0001) %MON dynstat_vvel_min             =  -1.5372757311730E-01
(PID.TID 0000.0001) %MON dynstat_vvel_mean            =   3.2628791511676E-03
(PID.TID 0000.0001) %MON dynstat_vvel_sd              =   1.5685211960021E-02
(PID.TID 0000.0001) %MON dynstat_vvel_del2            =   5.1820440669086E-03
(PID.TID 0000.0001) %MON dynstat_wvel_max             =   2.7663209519131E-04
(PID.TID 0000.0001) %MON dynstat_wvel_min             =  -2.8302406555142E-04
(PID.TID 0000.0001) %MON dynstat_wvel_mean            =  -6.1857668951013E-22
(PID.TID 0000.0001) %MON dynstat_wvel_sd              =   3.0621861535149E-05
(PID.TID 0000.0001) %MON dynstat_wvel_del2            =   1.2420625800768E-05
(PID.TID 0000.0001) %MON dynstat_theta_max            =   2.9581255586378E+01
(PID.TID 0000.0001) %MON dynstat_theta_min            =  -1.9448925468411E+00
(PID.TID 0000.0001) %MON dynstat_theta_mean           =   3.5937471909773E+00
(PID.TID 0000.0001) %MON dynstat_theta_sd             =   4.3478443086148E+00
(PID.TID 0000.0001) %MON dynstat_theta_del2           =   1.3331747341674E-01
(PID.TID 0000.0001) %MON dynstat_salt_max             =   3.7393988125025E+01
(PID.TID 0000.0001) %MON dynstat_salt_min             =   2.9806147010772E+01
(PID.TID 0000.0001) %MON dynstat_salt_mean            =   3.4716246820209E+01
(PID.TID 0000.0001) %MON dynstat_salt_sd              =   2.9394725499944E-01
(PID.TID 0000.0001) %MON dynstat_salt_del2            =   2.4841384869888E-02
(PID.TID 0000.0001) %MON advcfl_uvel_max              =   3.1126330594507E-02
(PID.TID 0000.0001) %MON advcfl_vvel_max              =   1.9227919782983E-02
(PID.TID 0000.0001) %MON advcfl_wvel_max              =   1.8859177554436E-01
(PID.TID 0000.0001) %MON advcfl_W_hf_max              =   1.5496855596936E-01
(PID.TID 0000.0001) %MON pe_b_mean                    =   2.0754168159401E-04
(PID.TID 0000.0001) %MON ke_max                       =   1.8267160317983E-02
(PID.TID 0000.0001) %MON ke_mean                      =   2.5673137154528E-04
(PID.TID 0000.0001) %MON ke_vol                       =   1.3226782436723E+18
(PID.TID 0000.0001) %MON vort_r_min                   =  -8.3285024784721E-07
(PID.TID 0000.0001) %MON vort_r_max                   =   6.7130206104814E-07
(PID.TID 0000.0001) %MON vort_a_mean                  =  -2.5205769065685E-05
(PID.TID 0000.0001) %MON vort_a_sd                    =   7.3402840267983E-05
(PID.TID 0000.0001) %MON vort_p_mean                  =  -3.1758669144507E-05
(PID.TID 0000.0001) %MON vort_p_sd                    =   1.3126291076840E-04
(PID.TID 0000.0001) %MON surfExpan_theta_mean         =   1.1881339060292E-05
(PID.TID 0000.0001) %MON surfExpan_salt_mean          =   2.0177234743025E-06
(PID.TID 0000.0001) // =======================================================
(PID.TID 0000.0001) // End MONITOR dynamic field statistics
(PID.TID 0000.0001) // =======================================================
(PID.TID 0000.0001)  MDS_WRITE_RL_VEC: irec =  00000008   00066240
(PID.TID 0000.0001)  MDS_WRITE_RL_VEC: irec =  00000008   00066240
(PID.TID 0000.0001)  MDS_WRITE_RL_VEC: irec =  00000008   00066240
(PID.TID 0000.0001)  MDS_WRITE_RL_VEC: irec =  00000008   00066240
(PID.TID 0000.0001)  MDS_WRITE_RL_VEC: irec =  00000008   00066240
(PID.TID 0000.0001)  MDS_WRITE_RL_VEC: irec =  00000008   00066240
(PID.TID 0000.0001)  MDS_WRITE_RL_VEC: irec =  00000008   00066240
(PID.TID 0000.0001)  MDS_WRITE_RL_VEC: irec =  00000008   00066240
(PID.TID 0000.0001)  MDS_WRITE_RL_VEC: irec =  00000008   00066240
(PID.TID 0000.0001)  MDS_WRITE_RL_VEC: irec =  00000008   00066240
(PID.TID 0000.0001)  MDS_WRITE_RL_VEC: irec =  00000008   00066240
(PID.TID 0000.0001)  MDS_WRITE_RL_VEC: irec =  00000008   00004416
(PID.TID 0000.0001)  MDS_WRITE_RL_VEC: irec =  00000008   00066240
(PID.TID 0000.0001)  MDS_WRITE_RL_VEC: irec =  00000008   00004416
(PID.TID 0000.0001)  MDS_WRITE_RL_VEC: irec =  00000008   00004416
(PID.TID 0000.0001)  MDS_WRITE_RL_VEC: irec =  00000008   00004416
(PID.TID 0000.0001)  MDS_WRITE_RL_VEC: irec =  00000008   00004416
(PID.TID 0000.0001)  MDS_WRITE_RL_VEC: irec =  00000008   00004416
(PID.TID 0000.0001)  MDS_WRITE_RL_VEC: irec =  00000008   00004416
(PID.TID 0000.0001)  MDS_WRITE_RL_VEC: irec =  00000008   00004416
(PID.TID 0000.0001)  MDS_WRITE_RL_VEC: irec =  00000008   00004416
(PID.TID 0000.0001)  MDS_WRITE_RL_VEC: irec =  00000008   00004416
(PID.TID 0000.0001)  MDS_WRITE_RL_VEC: irec =  00000008   00004416
(PID.TID 0000.0001)  MDS_WRITE_RL_VEC: irec =  00000008   00004416
(PID.TID 0000.0001)  MDS_WRITE_RL_VEC: irec =  00000008   00004416
(PID.TID 0000.0001)  MDS_WRITE_RL_VEC: irec =  00000008   00004416
(PID.TID 0000.0001)  MDS_WRITE_RL_VEC: irec =  00000008   00004416
(PID.TID 0000.0001)  MDS_WRITE_RL_VEC: irec =  00000008   00004416
(PID.TID 0000.0001)  MDS_WRITE_RL_VEC: irec =  00000008   00004416
(PID.TID 0000.0001)  MDS_WRITE_RL_VEC: irec =  00000008   00004416
(PID.TID 0000.0001)  MDS_WRITE_RL_VEC: irec =  00000008   00004416
time,SST,SSS,fu,fv,Q,E-P,i0,i1,a,b =   1.8144E+06  6.6037E-01  3.4656E+01 -3.1393E-02 -4.9332E-02  2.6071E+02  0.0000E+00     1     2  2.0000E-01  8.0000E-01
time,fu0,fu1,fu =   1.8144E+06 -3.5633E-02 -1.4435E-02 -3.1393E-02  2.0000E-01  8.0000E-01
 cg2d: Sum(rhs),rhsMax =   4.34166591567475E-13  7.68469225012547E+00
(PID.TID 0000.0001)                    cg2d_init_res =    7.41331539977257E-01
(PID.TID 0000.0001)                       cg2d_iters =    25
(PID.TID 0000.0001)                         cg2d_res =    4.26677709895171E-14
(PID.TID 0000.0001) // =======================================================
(PID.TID 0000.0001) // Begin MONITOR dynamic field statistics
(PID.TID 0000.0001) // =======================================================
(PID.TID 0000.0001) %MON time_tsnumber                =                    43
(PID.TID 0000.0001) %MON time_secondsf                =   1.8576000000000E+06
(PID.TID 0000.0001) %MON dynstat_eta_max              =   8.3355386955783E-01
(PID.TID 0000.0001) %MON dynstat_eta_min              =  -1.1081347960174E+00
(PID.TID 0000.0001) %MON dynstat_eta_mean             =   2.6391102175193E-16
(PID.TID 0000.0001) %MON dynstat_eta_sd               =   4.0481491999127E-01
(PID.TID 0000.0001) %MON dynstat_eta_del2             =   1.9057915626024E-02
(PID.TID 0000.0001) %MON dynstat_uvel_max             =   1.8116953038392E-01
(PID.TID 0000.0001) %MON dynstat_uvel_min             =  -2.2182694669176E-01
(PID.TID 0000.0001) %MON dynstat_uvel_mean            =  -2.7224004213661E-03
(PID.TID 0000.0001) %MON dynstat_uvel_sd              =   1.7260601954884E-02
(PID.TID 0000.0001) %MON dynstat_uvel_del2            =   5.6914372154169E-03
(PID.TID 0000.0001) %MON dynstat_vvel_max             =   1.9116249247854E-01
(PID.TID 0000.0001) %MON dynstat_vvel_min             =  -1.5403098112558E-01
(PID.TID 0000.0001) %MON dynstat_vvel_mean            =   3.0456056851131E-03
(PID.TID 0000.0001) %MON dynstat_vvel_sd              =   1.5509448623634E-02
(PID.TID 0000.0001) %MON dynstat_vvel_del2            =   5.1714800818714E-03
(PID.TID 0000.0001) %MON dynstat_wvel_max             =   2.8286999927084E-04
(PID.TID 0000.0001) %MON dynstat_wvel_min             =  -2.7144058631007E-04
(PID.TID 0000.0001) %MON dynstat_wvel_mean            =  -5.7572922960220E-22
(PID.TID 0000.0001) %MON dynstat_wvel_sd              =   3.0460067304629E-05
(PID.TID 0000.0001) %MON dynstat_wvel_del2            =   1.2390752813334E-05
(PID.TID 0000.0001) %MON dynstat_theta_max            =   2.9591806149703E+01
(PID.TID 0000.0001) %MON dynstat_theta_min            =  -1.9439601872690E+00
(PID.TID 0000.0001) %MON dynstat_theta_mean           =   3.5936509691013E+00
(PID.TID 0000.0001) %MON dynstat_theta_sd             =   4.3476943852429E+00
(PID.TID 0000.0001) %MON dynstat_theta_del2           =   1.3318219426632E-01
(PID.TID 0000.0001) %MON dynstat_salt_max             =   3.7391643341026E+01
(PID.TID 0000.0001) %MON dynstat_salt_min             =   2.9806047480809E+01
(PID.TID 0000.0001) %MON dynstat_salt_mean            =   3.4716225165221E+01
(PID.TID 0000.0001) %MON dynstat_salt_sd              =   2.9388585462329E-01
(PID.TID 0000.0001) %MON dynstat_salt_del2            =   2.4801571785174E-02
(PID.TID 0000.0001) %MON advcfl_uvel_max              =   3.0828093609080E-02
(PID.TID 0000.0001) %MON advcfl_vvel_max              =   1.8569903205400E-02
(PID.TID 0000.0001) %MON advcfl_wvel_max              =   1.8480872783460E-01
(PID.TID 0000.0001) %MON advcfl_W_hf_max              =   1.4555346493552E-01
(PID.TID 0000.0001) %MON pe_b_mean                    =   2.0969796766517E-04
(PID.TID 0000.0001) %MON ke_max                       =   1.8407427109141E-02
(PID.TID 0000.0001) %MON ke_mean                      =   2.5087508300624E-04
(PID.TID 0000.0001) %MON ke_vol                       =   1.3226782436723E+18
(PID.TID 0000.0001) %MON vort_r_min                   =  -8.3785623568059E-07
(PID.TID 0000.0001) %MON vort_r_max                   =   6.7477700917010E-07
(PID.TID 0000.0001) %MON vort_a_mean                  =  -2.5205769023347E-05
(PID.TID 0000.0001) %MON vort_a_sd                    =   7.3402856973488E-05
(PID.TID 0000.0001) %MON vort_p_mean                  =  -3.1758669091162E-05
(PID.TID 0000.0001) %MON vort_p_sd                    =   1.3126296905750E-04
(PID.TID 0000.0001) %MON surfExpan_theta_mean         =   1.2399342330334E-05
(PID.TID 0000.0001) %MON surfExpan_salt_mean          =   1.9506646250789E-06
(PID.TID 0000.0001) // =======================================================
(PID.TID 0000.0001) // End MONITOR dynamic field statistics
(PID.TID 0000.0001) // =======================================================
time,SST,SSS,fu,fv,Q,E-P,i0,i1,a,b =   1.8576E+06  6.3553E-01  3.4651E+01 -3.1040E-02 -4.8672E-02  2.6029E+02  0.0000E+00     1     2  2.1667E-01  7.8333E-01
time,fu0,fu1,fu =   1.8576E+06 -3.5633E-02 -1.4435E-02 -3.1040E-02  2.1667E-01  7.8333E-01
 cg2d: Sum(rhs),rhsMax =   2.94195223737859E-13  7.71510904649464E+00
(PID.TID 0000.0001)                    cg2d_init_res =    7.34299222106869E-01
(PID.TID 0000.0001)                       cg2d_iters =    25
(PID.TID 0000.0001)                         cg2d_res =    3.89604504510856E-14
(PID.TID 0000.0001) // =======================================================
(PID.TID 0000.0001) // Begin MONITOR dynamic field statistics
(PID.TID 0000.0001) // =======================================================
(PID.TID 0000.0001) %MON time_tsnumber                =                    44
(PID.TID 0000.0001) %MON time_secondsf                =   1.9008000000000E+06
(PID.TID 0000.0001) %MON dynstat_eta_max              =   8.9426613488475E-01
(PID.TID 0000.0001) %MON dynstat_eta_min              =  -1.1294868131468E+00
(PID.TID 0000.0001) %MON dynstat_eta_mean             =   3.6634385263523E-17
(PID.TID 0000.0001) %MON dynstat_eta_sd               =   4.0665848745976E-01
(PID.TID 0000.0001) %MON dynstat_eta_del2             =   1.9164921672558E-02
(PID.TID 0000.0001) %MON dynstat_uvel_max             =   1.6697025682221E-01
(PID.TID 0000.0001) %MON dynstat_uvel_min             =  -2.2350757702692E-01
(PID.TID 0000.0001) %MON dynstat_uvel_mean            =  -2.6661722406689E-03
(PID.TID 0000.0001) %MON dynstat_uvel_sd              =   1.7122401837822E-02
(PID.TID 0000.0001) %MON dynstat_uvel_del2            =   5.6632058173493E-03
(PID.TID 0000.0001) %MON dynstat_vvel_max             =   1.8369155692790E-01
(PID.TID 0000.0001) %MON dynstat_vvel_min             =  -1.5364506503882E-01
(PID.TID 0000.0001) %MON dynstat_vvel_mean            =   2.7998960303030E-03
(PID.TID 0000.0001) %MON dynstat_vvel_sd              =   1.5334539634419E-02
(PID.TID 0000.0001) %MON dynstat_vvel_del2            =   5.1603278165793E-03
(PID.TID 0000.0001) %MON dynstat_wvel_max             =   2.8844918546892E-04
(PID.TID 0000.0001) %MON dynstat_wvel_min             =  -2.6024370523927E-04
(PID.TID 0000.0001) %MON dynstat_wvel_mean            =   2.0141123657554E-22
(PID.TID 0000.0001) %MON dynstat_wvel_sd              =   3.0271514203645E-05
(PID.TID 0000.0001) %MON dynstat_wvel_del2            =   1.2348495314937E-05
(PID.TID 0000.0001) %MON dynstat_theta_max            =   2.9606631768140E+01
(PID.TID 0000.0001) %MON dynstat_theta_min            =  -1.9430441349619E+00
(PID.TID 0000.0001) %MON dynstat_theta_mean           =   3.5935535435753E+00
(PID.TID 0000.0001) %MON dynstat_theta_sd             =   4.3474705237417E+00
(PID.TID 0000.0001) %MON dynstat_theta_del2           =   1.3304882459189E-01
(PID.TID 0000.0001) %MON dynstat_salt_max             =   3.7389300454292E+01
(PID.TID 0000.0001) %MON dynstat_salt_min             =   2.9805858536414E+01
(PID.TID 0000.0001) %MON dynstat_salt_mean            =   3.4716205533683E+01
(PID.TID 0000.0001) %MON dynstat_salt_sd              =   2.9382881349631E-01
(PID.TID 0000.0001) %MON dynstat_salt_del2            =   2.4761130981809E-02
(PID.TID 0000.0001) %MON advcfl_uvel_max              =   3.0553749078866E-02
(PID.TID 0000.0001) %MON advcfl_vvel_max              =   1.7844161726355E-02
(PID.TID 0000.0001) %MON advcfl_wvel_max              =   1.7525684727189E-01
(PID.TID 0000.0001) %MON advcfl_W_hf_max              =   1.3805886834652E-01
(PID.TID 0000.0001) %MON pe_b_mean                    =   2.1161228762869E-04
(PID.TID 0000.0001) %MON ke_max                       =   1.8575046692299E-02
(PID.TID 0000.0001) %MON ke_mean                      =   2.4551182570566E-04
(PID.TID 0000.0001) %MON ke_vol                       =   1.3226782436723E+18
(PID.TID 0000.0001) %MON vort_r_min                   =  -8.6003589695730E-07
(PID.TID 0000.0001) %MON vort_r_max                   =   6.7634722291885E-07
(PID.TID 0000.0001) %MON vort_a_mean                  =  -2.5205768980248E-05
(PID.TID 0000.0001) %MON vort_a_sd                    =   7.3402872418155E-05
(PID.TID 0000.0001) %MON vort_p_mean                  =  -3.1758669036859E-05
(PID.TID 0000.0001) %MON vort_p_sd                    =   1.3126302225687E-04
(PID.TID 0000.0001) %MON surfExpan_theta_mean         =   1.2664571828855E-05
(PID.TID 0000.0001) %MON surfExpan_salt_mean          =   1.8150393595367E-06
(PID.TID 0000.0001) // =======================================================
(PID.TID 0000.0001) // End MONITOR dynamic field statistics
(PID.TID 0000.0001) // =======================================================
time,SST,SSS,fu,fv,Q,E-P,i0,i1,a,b =   1.9008E+06  6.1069E-01  3.4646E+01 -3.0687E-02 -4.8012E-02  2.5987E+02  0.0000E+00     1     2  2.3333E-01  7.6667E-01
time,fu0,fu1,fu =   1.9008E+06 -3.5633E-02 -1.4435E-02 -3.0687E-02  2.3333E-01  7.6667E-01
 cg2d: Sum(rhs),rhsMax =   1.34614541735800E-13  7.94458113352408E+00
(PID.TID 0000.0001)                    cg2d_init_res =    7.06079108937279E-01
(PID.TID 0000.0001)                       cg2d_iters =    25
(PID.TID 0000.0001)                         cg2d_res =    3.40411682974403E-14
(PID.TID 0000.0001) // =======================================================
(PID.TID 0000.0001) // Begin MONITOR dynamic field statistics
(PID.TID 0000.0001) // =======================================================
(PID.TID 0000.0001) %MON time_tsnumber                =                    45
(PID.TID 0000.0001) %MON time_secondsf                =   1.9440000000000E+06
(PID.TID 0000.0001) %MON dynstat_eta_max              =   9.6110825863033E-01
(PID.TID 0000.0001) %MON dynstat_eta_min              =  -1.1438713253088E+00
(PID.TID 0000.0001) %MON dynstat_eta_mean             =  -7.3621829780766E-17
(PID.TID 0000.0001) %MON dynstat_eta_sd               =   4.0825439367676E-01
(PID.TID 0000.0001) %MON dynstat_eta_del2             =   1.9223584005682E-02
(PID.TID 0000.0001) %MON dynstat_uvel_max             =   1.4986118863570E-01
(PID.TID 0000.0001) %MON dynstat_uvel_min             =  -2.2190073152242E-01
(PID.TID 0000.0001) %MON dynstat_uvel_mean            =  -2.6064972128328E-03
(PID.TID 0000.0001) %MON dynstat_uvel_sd              =   1.7010500195589E-02
(PID.TID 0000.0001) %MON dynstat_uvel_del2            =   5.6305599842974E-03
(PID.TID 0000.0001) %MON dynstat_vvel_max             =   1.7501479336192E-01
(PID.TID 0000.0001) %MON dynstat_vvel_min             =  -1.5257497937582E-01
(PID.TID 0000.0001) %MON dynstat_vvel_mean            =   2.5297671682323E-03
(PID.TID 0000.0001) %MON dynstat_vvel_sd              =   1.5166624284930E-02
(PID.TID 0000.0001) %MON dynstat_vvel_del2            =   5.1482184231316E-03
(PID.TID 0000.0001) %MON dynstat_wvel_max             =   2.9339932242190E-04
(PID.TID 0000.0001) %MON dynstat_wvel_min             =  -2.4954385295076E-04
(PID.TID 0000.0001) %MON dynstat_wvel_mean            =   4.4916440909923E-22
(PID.TID 0000.0001) %MON dynstat_wvel_sd              =   3.0053920125057E-05
(PID.TID 0000.0001) %MON dynstat_wvel_del2            =   1.2289107236017E-05
(PID.TID 0000.0001) %MON dynstat_theta_max            =   2.9620324185575E+01
(PID.TID 0000.0001) %MON dynstat_theta_min            =  -1.9423409107957E+00
(PID.TID 0000.0001) %MON dynstat_theta_mean           =   3.5934571957929E+00
(PID.TID 0000.0001) %MON dynstat_theta_sd             =   4.3471849881066E+00
(PID.TID 0000.0001) %MON dynstat_theta_del2           =   1.3293987327735E-01
(PID.TID 0000.0001) %MON dynstat_salt_max             =   3.7386927885663E+01
(PID.TID 0000.0001) %MON dynstat_salt_min             =   2.9805585665262E+01
(PID.TID 0000.0001) %MON dynstat_salt_mean            =   3.4716188501676E+01
(PID.TID 0000.0001) %MON dynstat_salt_sd              =   2.9377705107590E-01
(PID.TID 0000.0001) %MON dynstat_salt_del2            =   2.4728554261040E-02
(PID.TID 0000.0001) %MON advcfl_uvel_max              =   3.0307693383505E-02
(PID.TID 0000.0001) %MON advcfl_vvel_max              =   1.7001283725199E-02
(PID.TID 0000.0001) %MON advcfl_wvel_max              =   1.6044264955053E-01
(PID.TID 0000.0001) %MON advcfl_W_hf_max              =   1.2653242990995E-01
(PID.TID 0000.0001) %MON pe_b_mean                    =   2.1327646552497E-04
(PID.TID 0000.0001) %MON ke_max                       =   1.8718020318745E-02
(PID.TID 0000.0001) %MON ke_mean                      =   2.4068794820509E-04
(PID.TID 0000.0001) %MON ke_vol                       =   1.3226782436723E+18
(PID.TID 0000.0001) %MON vort_r_min                   =  -8.8170187425610E-07
(PID.TID 0000.0001) %MON vort_r_max                   =   6.7562802968436E-07
(PID.TID 0000.0001) %MON vort_a_mean                  =  -2.5205768937772E-05
(PID.TID 0000.0001) %MON vort_a_sd                    =   7.3402887357079E-05
(PID.TID 0000.0001) %MON vort_p_mean                  =  -3.1758668983340E-05
(PID.TID 0000.0001) %MON vort_p_sd                    =   1.3126307106215E-04
(PID.TID 0000.0001) %MON surfExpan_theta_mean         =   1.2709307181020E-05
(PID.TID 0000.0001) %MON surfExpan_salt_mean          =   1.6215737475243E-06
(PID.TID 0000.0001) // =======================================================
(PID.TID 0000.0001) // End MONITOR dynamic field statistics
(PID.TID 0000.0001) // =======================================================
time,SST,SSS,fu,fv,Q,E-P,i0,i1,a,b =   1.9440E+06  5.8585E-01  3.4641E+01 -3.0333E-02 -4.7351E-02  2.5945E+02  0.0000E+00     1     2  2.5000E-01  7.5000E-01
time,fu0,fu1,fu =   1.9440E+06 -3.5633E-02 -1.4435E-02 -3.0333E-02  2.5000E-01  7.5000E-01
 cg2d: Sum(rhs),rhsMax =  -9.75608482889356E-15  8.35758900805885E+00
(PID.TID 0000.0001)                    cg2d_init_res =    6.60858939570338E-01
(PID.TID 0000.0001)                       cg2d_iters =    25
(PID.TID 0000.0001)                         cg2d_res =    2.85049817945568E-14
(PID.TID 0000.0001) // =======================================================
(PID.TID 0000.0001) // Begin MONITOR dynamic field statistics
(PID.TID 0000.0001) // =======================================================
(PID.TID 0000.0001) %MON time_tsnumber                =                    46
(PID.TID 0000.0001) %MON time_secondsf                =   1.9872000000000E+06
(PID.TID 0000.0001) %MON dynstat_eta_max              =   1.0102916758841E+00
(PID.TID 0000.0001) %MON dynstat_eta_min              =  -1.1578391660963E+00
(PID.TID 0000.0001) %MON dynstat_eta_mean             =   6.0363220775175E-17
(PID.TID 0000.0001) %MON dynstat_eta_sd               =   4.0960225829075E-01
(PID.TID 0000.0001) %MON dynstat_eta_del2             =   1.9276135699813E-02
(PID.TID 0000.0001) %MON dynstat_uvel_max             =   1.4410834217175E-01
(PID.TID 0000.0001) %MON dynstat_uvel_min             =  -2.1713288005213E-01
(PID.TID 0000.0001) %MON dynstat_uvel_mean            =  -2.5405786540827E-03
(PID.TID 0000.0001) %MON dynstat_uvel_sd              =   1.6921666879052E-02
(PID.TID 0000.0001) %MON dynstat_uvel_del2            =   5.5959995318967E-03
(PID.TID 0000.0001) %MON dynstat_vvel_max             =   1.7550481146277E-01
(PID.TID 0000.0001) %MON dynstat_vvel_min             =  -1.5083211034878E-01
(PID.TID 0000.0001) %MON dynstat_vvel_mean            =   2.2395098596507E-03
(PID.TID 0000.0001) %MON dynstat_vvel_sd              =   1.5012316345328E-02
(PID.TID 0000.0001) %MON dynstat_vvel_del2            =   5.1361365771321E-03
(PID.TID 0000.0001) %MON dynstat_wvel_max             =   2.9774759129187E-04
(PID.TID 0000.0001) %MON dynstat_wvel_min             =  -2.3942389676917E-04
(PID.TID 0000.0001) %MON dynstat_wvel_mean            =  -1.7372967455790E-22
(PID.TID 0000.0001) %MON dynstat_wvel_sd              =   2.9809052487962E-05
(PID.TID 0000.0001) %MON dynstat_wvel_del2            =   1.2218095826963E-05
(PID.TID 0000.0001) %MON dynstat_theta_max            =   2.9632693660586E+01
(PID.TID 0000.0001) %MON dynstat_theta_min            =  -1.9410856516553E+00
(PID.TID 0000.0001) %MON dynstat_theta_mean           =   3.5933636034047E+00
(PID.TID 0000.0001) %MON dynstat_theta_sd             =   4.3468527021838E+00
(PID.TID 0000.0001) %MON dynstat_theta_del2           =   1.3282087061919E-01
(PID.TID 0000.0001) %MON dynstat_salt_max             =   3.7384525591173E+01
(PID.TID 0000.0001) %MON dynstat_salt_min             =   2.9805235607334E+01
(PID.TID 0000.0001) %MON dynstat_salt_mean            =   3.4716174483528E+01
(PID.TID 0000.0001) %MON dynstat_salt_sd              =   2.9373164651333E-01
(PID.TID 0000.0001) %MON dynstat_salt_del2            =   2.4687484382336E-02
(PID.TID 0000.0001) %MON advcfl_uvel_max              =   3.0093113631782E-02
(PID.TID 0000.0001) %MON advcfl_vvel_max              =   1.7048885054224E-02
(PID.TID 0000.0001) %MON advcfl_wvel_max              =   1.4103776198004E-01
(PID.TID 0000.0001) %MON advcfl_W_hf_max              =   1.3058798580240E-01
(PID.TID 0000.0001) %MON pe_b_mean                    =   2.1468706806737E-04
(PID.TID 0000.0001) %MON ke_max                       =   1.8837121077185E-02
(PID.TID 0000.0001) %MON ke_mean                      =   2.3645221434013E-04
(PID.TID 0000.0001) %MON ke_vol                       =   1.3226782436723E+18
(PID.TID 0000.0001) %MON vort_r_min                   =  -9.0277058424938E-07
(PID.TID 0000.0001) %MON vort_r_max                   =   6.7228493037970E-07
(PID.TID 0000.0001) %MON vort_a_mean                  =  -2.5205768896861E-05
(PID.TID 0000.0001) %MON vort_a_sd                    =   7.3402902445676E-05
(PID.TID 0000.0001) %MON vort_p_mean                  =  -3.1758668931793E-05
(PID.TID 0000.0001) %MON vort_p_sd                    =   1.3126311598205E-04
(PID.TID 0000.0001) %MON surfExpan_theta_mean         =   1.2574832715243E-05
(PID.TID 0000.0001) %MON surfExpan_salt_mean          =   1.3827390099845E-06
(PID.TID 0000.0001) // =======================================================
(PID.TID 0000.0001) // End MONITOR dynamic field statistics
(PID.TID 0000.0001) // =======================================================
time,SST,SSS,fu,fv,Q,E-P,i0,i1,a,b =   1.9872E+06  5.6102E-01  3.4636E+01 -2.9980E-02 -4.6691E-02  2.5903E+02  0.0000E+00     1     2  2.6667E-01  7.3333E-01
time,fu0,fu1,fu =   1.9872E+06 -3.5633E-02 -1.4435E-02 -2.9980E-02  2.6667E-01  7.3333E-01
 cg2d: Sum(rhs),rhsMax =   1.81049619740747E-13  8.64096094865015E+00
(PID.TID 0000.0001)                    cg2d_init_res =    6.25865011903459E-01
(PID.TID 0000.0001)                       cg2d_iters =    24
(PID.TID 0000.0001)                         cg2d_res =    9.94424331212307E-14
(PID.TID 0000.0001) // =======================================================
(PID.TID 0000.0001) // Begin MONITOR dynamic field statistics
(PID.TID 0000.0001) // =======================================================
(PID.TID 0000.0001) %MON time_tsnumber                =                    47
(PID.TID 0000.0001) %MON time_secondsf                =   2.0304000000000E+06
(PID.TID 0000.0001) %MON dynstat_eta_max              =   1.0510920931475E+00
(PID.TID 0000.0001) %MON dynstat_eta_min              =  -1.1714910243664E+00
(PID.TID 0000.0001) %MON dynstat_eta_mean             =   1.5854180787564E-16
(PID.TID 0000.0001) %MON dynstat_eta_sd               =   4.1070472376036E-01
(PID.TID 0000.0001) %MON dynstat_eta_del2             =   1.9329027258936E-02
(PID.TID 0000.0001) %MON dynstat_uvel_max             =   1.4349283597292E-01
(PID.TID 0000.0001) %MON dynstat_uvel_min             =  -2.0943766964400E-01
(PID.TID 0000.0001) %MON dynstat_uvel_mean            =  -2.4663454416600E-03
(PID.TID 0000.0001) %MON dynstat_uvel_sd              =   1.6852877820230E-02
(PID.TID 0000.0001) %MON dynstat_uvel_del2            =   5.5596521705175E-03
(PID.TID 0000.0001) %MON dynstat_vvel_max             =   1.7553918951083E-01
(PID.TID 0000.0001) %MON dynstat_vvel_min             =  -1.4843494313998E-01
(PID.TID 0000.0001) %MON dynstat_vvel_mean            =   1.9335813794935E-03
(PID.TID 0000.0001) %MON dynstat_vvel_sd              =   1.4878205399326E-02
(PID.TID 0000.0001) %MON dynstat_vvel_del2            =   5.1267110661450E-03
(PID.TID 0000.0001) %MON dynstat_wvel_max             =   3.0151804273672E-04
(PID.TID 0000.0001) %MON dynstat_wvel_min             =  -2.3771513257026E-04
(PID.TID 0000.0001) %MON dynstat_wvel_mean            =  -1.4278357691201E-22
(PID.TID 0000.0001) %MON dynstat_wvel_sd              =   2.9542380759614E-05
(PID.TID 0000.0001) %MON dynstat_wvel_del2            =   1.2135478476388E-05
(PID.TID 0000.0001) %MON dynstat_theta_max            =   2.9643629929310E+01
(PID.TID 0000.0001) %MON dynstat_theta_min            =  -1.9405386874217E+00
(PID.TID 0000.0001) %MON dynstat_theta_mean           =   3.5932741003545E+00
(PID.TID 0000.0001) %MON dynstat_theta_sd             =   4.3464857437123E+00
(PID.TID 0000.0001) %MON dynstat_theta_del2           =   1.3275548831262E-01
(PID.TID 0000.0001) %MON dynstat_salt_max             =   3.7382093444656E+01
(PID.TID 0000.0001) %MON dynstat_salt_min             =   2.9804815737612E+01
(PID.TID 0000.0001) %MON dynstat_salt_mean            =   3.4716163740746E+01
(PID.TID 0000.0001) %MON dynstat_salt_sd              =   2.9369287816760E-01
(PID.TID 0000.0001) %MON dynstat_salt_del2            =   2.4648340023484E-02
(PID.TID 0000.0001) %MON advcfl_uvel_max              =   2.9912116610054E-02
(PID.TID 0000.0001) %MON advcfl_vvel_max              =   1.7052224605914E-02
(PID.TID 0000.0001) %MON advcfl_wvel_max              =   1.3441812387260E-01
(PID.TID 0000.0001) %MON advcfl_W_hf_max              =   1.3454682466137E-01
(PID.TID 0000.0001) %MON pe_b_mean                    =   2.1584430584880E-04
(PID.TID 0000.0001) %MON ke_max                       =   1.8932967980755E-02
(PID.TID 0000.0001) %MON ke_mean                      =   2.3285502642627E-04
(PID.TID 0000.0001) %MON ke_vol                       =   1.3226782436723E+18
(PID.TID 0000.0001) %MON vort_r_min                   =  -9.2315355074494E-07
(PID.TID 0000.0001) %MON vort_r_max                   =   6.6604283744460E-07
(PID.TID 0000.0001) %MON vort_a_mean                  =  -2.5205768858192E-05
(PID.TID 0000.0001) %MON vort_a_sd                    =   7.3402918220486E-05
(PID.TID 0000.0001) %MON vort_p_mean                  =  -3.1758668883070E-05
(PID.TID 0000.0001) %MON vort_p_sd                    =   1.3126315724746E-04
(PID.TID 0000.0001) %MON surfExpan_theta_mean         =   1.2303424755058E-05
(PID.TID 0000.0001) %MON surfExpan_salt_mean          =   1.1122418195562E-06
(PID.TID 0000.0001) // =======================================================
(PID.TID 0000.0001) // End MONITOR dynamic field statistics
(PID.TID 0000.0001) // =======================================================
time,SST,SSS,fu,fv,Q,E-P,i0,i1,a,b =   2.0304E+06  5.3618E-01  3.4631E+01 -2.9627E-02 -4.6031E-02  2.5861E+02  0.0000E+00     1     2  2.8333E-01  7.1667E-01
time,fu0,fu1,fu =   2.0304E+06 -3.5633E-02 -1.4435E-02 -2.9627E-02  2.8333E-01  7.1667E-01
 cg2d: Sum(rhs),rhsMax =   4.28823643261467E-15  8.90282406586782E+00
(PID.TID 0000.0001)                    cg2d_init_res =    5.92306224192805E-01
(PID.TID 0000.0001)                       cg2d_iters =    24
(PID.TID 0000.0001)                         cg2d_res =    8.09487812904797E-14
(PID.TID 0000.0001) // =======================================================
(PID.TID 0000.0001) // Begin MONITOR dynamic field statistics
(PID.TID 0000.0001) // =======================================================
(PID.TID 0000.0001) %MON time_tsnumber                =                    48
(PID.TID 0000.0001) %MON time_secondsf                =   2.0736000000000E+06
(PID.TID 0000.0001) %MON dynstat_eta_max              =   1.0809486883926E+00
(PID.TID 0000.0001) %MON dynstat_eta_min              =  -1.1761446766764E+00
(PID.TID 0000.0001) %MON dynstat_eta_mean             =   1.6104664713287E-16
(PID.TID 0000.0001) %MON dynstat_eta_sd               =   4.1156857996880E-01
(PID.TID 0000.0001) %MON dynstat_eta_del2             =   1.9406444649530E-02
(PID.TID 0000.0001) %MON dynstat_uvel_max             =   1.4243589281253E-01
(PID.TID 0000.0001) %MON dynstat_uvel_min             =  -1.9913989505240E-01
(PID.TID 0000.0001) %MON dynstat_uvel_mean            =  -2.3824284227757E-03
(PID.TID 0000.0001) %MON dynstat_uvel_sd              =   1.6801672604692E-02
(PID.TID 0000.0001) %MON dynstat_uvel_del2            =   5.5242548767221E-03
(PID.TID 0000.0001) %MON dynstat_vvel_max             =   1.7483126264925E-01
(PID.TID 0000.0001) %MON dynstat_vvel_min             =  -1.4739229816651E-01
(PID.TID 0000.0001) %MON dynstat_vvel_mean            =   1.6164918293587E-03
(PID.TID 0000.0001) %MON dynstat_vvel_sd              =   1.4770217468481E-02
(PID.TID 0000.0001) %MON dynstat_vvel_del2            =   5.1170479117188E-03
(PID.TID 0000.0001) %MON dynstat_wvel_max             =   3.0473165418535E-04
(PID.TID 0000.0001) %MON dynstat_wvel_min             =  -2.3865734188873E-04
(PID.TID 0000.0001) %MON dynstat_wvel_mean            =   3.1129346636224E-22
(PID.TID 0000.0001) %MON dynstat_wvel_sd              =   2.9262450971866E-05
(PID.TID 0000.0001) %MON dynstat_wvel_del2            =   1.2050584404955E-05
(PID.TID 0000.0001) %MON dynstat_theta_max            =   2.9654565615877E+01
(PID.TID 0000.0001) %MON dynstat_theta_min            =  -1.9414884310116E+00
(PID.TID 0000.0001) %MON dynstat_theta_mean           =   3.5931894074871E+00
(PID.TID 0000.0001) %MON dynstat_theta_sd             =   4.3460982485485E+00
(PID.TID 0000.0001) %MON dynstat_theta_del2           =   1.3261765989058E-01
(PID.TID 0000.0001) %MON dynstat_salt_max             =   3.7379632325330E+01
(PID.TID 0000.0001) %MON dynstat_salt_min             =   2.9804333463836E+01
(PID.TID 0000.0001) %MON dynstat_salt_mean            =   3.4716156365147E+01
(PID.TID 0000.0001) %MON dynstat_salt_sd              =   2.9366133847211E-01
(PID.TID 0000.0001) %MON dynstat_salt_del2            =   2.4603128146993E-02
(PID.TID 0000.0001) %MON advcfl_uvel_max              =   2.9765810597100E-02
(PID.TID 0000.0001) %MON advcfl_vvel_max              =   1.6983455188202E-02
(PID.TID 0000.0001) %MON advcfl_wvel_max              =   1.3750141026996E-01
(PID.TID 0000.0001) %MON advcfl_W_hf_max              =   1.3667427325033E-01
(PID.TID 0000.0001) %MON pe_b_mean                    =   2.1675325345347E-04
(PID.TID 0000.0001) %MON ke_max                       =   1.9005995042960E-02
(PID.TID 0000.0001) %MON ke_mean                      =   2.2994450903498E-04
(PID.TID 0000.0001) %MON ke_vol                       =   1.3226782436723E+18
(PID.TID 0000.0001) %MON vort_r_min                   =  -9.4276352603294E-07
(PID.TID 0000.0001) %MON vort_r_max                   =   6.5669473381591E-07
(PID.TID 0000.0001) %MON vort_a_mean                  =  -2.5205768822151E-05
(PID.TID 0000.0001) %MON vort_a_sd                    =   7.3402935093278E-05
(PID.TID 0000.0001) %MON vort_p_mean                  =  -3.1758668837660E-05
(PID.TID 0000.0001) %MON vort_p_sd                    =   1.3126319498726E-04
(PID.TID 0000.0001) %MON surfExpan_theta_mean         =   1.1938476528822E-05
(PID.TID 0000.0001) %MON surfExpan_salt_mean          =   8.2460193258028E-07
(PID.TID 0000.0001) // =======================================================
(PID.TID 0000.0001) // End MONITOR dynamic field statistics
(PID.TID 0000.0001) // =======================================================
(PID.TID 0000.0001)  MDS_WRITE_RL_VEC: irec =  00000009   00066240
(PID.TID 0000.0001)  MDS_WRITE_RL_VEC: irec =  00000009   00066240
(PID.TID 0000.0001)  MDS_WRITE_RL_VEC: irec =  00000009   00066240
(PID.TID 0000.0001)  MDS_WRITE_RL_VEC: irec =  00000009   00066240
(PID.TID 0000.0001)  MDS_WRITE_RL_VEC: irec =  00000009   00066240
(PID.TID 0000.0001)  MDS_WRITE_RL_VEC: irec =  00000009   00066240
(PID.TID 0000.0001)  MDS_WRITE_RL_VEC: irec =  00000009   00066240
(PID.TID 0000.0001)  MDS_WRITE_RL_VEC: irec =  00000009   00066240
(PID.TID 0000.0001)  MDS_WRITE_RL_VEC: irec =  00000009   00066240
(PID.TID 0000.0001)  MDS_WRITE_RL_VEC: irec =  00000009   00066240
(PID.TID 0000.0001)  MDS_WRITE_RL_VEC: irec =  00000009   00066240
(PID.TID 0000.0001)  MDS_WRITE_RL_VEC: irec =  00000009   00004416
(PID.TID 0000.0001)  MDS_WRITE_RL_VEC: irec =  00000009   00066240
(PID.TID 0000.0001)  MDS_WRITE_RL_VEC: irec =  00000009   00004416
(PID.TID 0000.0001)  MDS_WRITE_RL_VEC: irec =  00000009   00004416
(PID.TID 0000.0001)  MDS_WRITE_RL_VEC: irec =  00000009   00004416
(PID.TID 0000.0001)  MDS_WRITE_RL_VEC: irec =  00000009   00004416
(PID.TID 0000.0001)  MDS_WRITE_RL_VEC: irec =  00000009   00004416
(PID.TID 0000.0001)  MDS_WRITE_RL_VEC: irec =  00000009   00004416
(PID.TID 0000.0001)  MDS_WRITE_RL_VEC: irec =  00000009   00004416
(PID.TID 0000.0001)  MDS_WRITE_RL_VEC: irec =  00000009   00004416
(PID.TID 0000.0001)  MDS_WRITE_RL_VEC: irec =  00000009   00004416
(PID.TID 0000.0001)  MDS_WRITE_RL_VEC: irec =  00000009   00004416
(PID.TID 0000.0001)  MDS_WRITE_RL_VEC: irec =  00000009   00004416
(PID.TID 0000.0001)  MDS_WRITE_RL_VEC: irec =  00000009   00004416
(PID.TID 0000.0001)  MDS_WRITE_RL_VEC: irec =  00000009   00004416
(PID.TID 0000.0001)  MDS_WRITE_RL_VEC: irec =  00000009   00004416
(PID.TID 0000.0001)  MDS_WRITE_RL_VEC: irec =  00000009   00004416
(PID.TID 0000.0001)  MDS_WRITE_RL_VEC: irec =  00000009   00004416
(PID.TID 0000.0001)  MDS_WRITE_RL_VEC: irec =  00000009   00004416
(PID.TID 0000.0001)  MDS_WRITE_RL_VEC: irec =  00000009   00004416
time,SST,SSS,fu,fv,Q,E-P,i0,i1,a,b =   2.0736E+06  5.1134E-01  3.4627E+01 -2.9273E-02 -4.5370E-02  2.5818E+02  0.0000E+00     1     2  3.0000E-01  7.0000E-01
time,fu0,fu1,fu =   2.0736E+06 -3.5633E-02 -1.4435E-02 -2.9273E-02  3.0000E-01  7.0000E-01
 cg2d: Sum(rhs),rhsMax =   3.88467036316342E-13  8.99099016877957E+00
(PID.TID 0000.0001)                    cg2d_init_res =    5.70825621762599E-01
(PID.TID 0000.0001)                       cg2d_iters =    24
(PID.TID 0000.0001)                         cg2d_res =    8.02879853946225E-14
(PID.TID 0000.0001) // =======================================================
(PID.TID 0000.0001) // Begin MONITOR dynamic field statistics
(PID.TID 0000.0001) // =======================================================
(PID.TID 0000.0001) %MON time_tsnumber                =                    49
(PID.TID 0000.0001) %MON time_secondsf                =   2.1168000000000E+06
(PID.TID 0000.0001) %MON dynstat_eta_max              =   1.0898131534312E+00
(PID.TID 0000.0001) %MON dynstat_eta_min              =  -1.1725935860853E+00
(PID.TID 0000.0001) %MON dynstat_eta_mean             =   7.3156250077188E-17
(PID.TID 0000.0001) %MON dynstat_eta_sd               =   4.1220728454835E-01
(PID.TID 0000.0001) %MON dynstat_eta_del2             =   1.9438805981310E-02
(PID.TID 0000.0001) %MON dynstat_uvel_max             =   1.4134065977161E-01
(PID.TID 0000.0001) %MON dynstat_uvel_min             =  -1.9929452537527E-01
(PID.TID 0000.0001) %MON dynstat_uvel_mean            =  -2.2881405758409E-03
(PID.TID 0000.0001) %MON dynstat_uvel_sd              =   1.6766412507197E-02
(PID.TID 0000.0001) %MON dynstat_uvel_del2            =   5.4896024018522E-03
(PID.TID 0000.0001) %MON dynstat_vvel_max             =   1.7342956481528E-01
(PID.TID 0000.0001) %MON dynstat_vvel_min             =  -1.4584798953374E-01
(PID.TID 0000.0001) %MON dynstat_vvel_mean            =   1.2927115284732E-03
(PID.TID 0000.0001) %MON dynstat_vvel_sd              =   1.4692858013029E-02
(PID.TID 0000.0001) %MON dynstat_vvel_del2            =   5.1036015433670E-03
(PID.TID 0000.0001) %MON dynstat_wvel_max             =   3.0740730803275E-04
(PID.TID 0000.0001) %MON dynstat_wvel_min             =  -2.3854990345699E-04
(PID.TID 0000.0001) %MON dynstat_wvel_mean            =  -2.4338627023821E-22
(PID.TID 0000.0001) %MON dynstat_wvel_sd              =   2.8979464277878E-05
(PID.TID 0000.0001) %MON dynstat_wvel_del2            =   1.1961391844344E-05
(PID.TID 0000.0001) %MON dynstat_theta_max            =   2.9664417201557E+01
(PID.TID 0000.0001) %MON dynstat_theta_min            =  -1.9438856076458E+00
(PID.TID 0000.0001) %MON dynstat_theta_mean           =   3.5931098247742E+00
(PID.TID 0000.0001) %MON dynstat_theta_sd             =   4.3457011157635E+00
(PID.TID 0000.0001) %MON dynstat_theta_del2           =   1.3249696129779E-01
(PID.TID 0000.0001) %MON dynstat_salt_max             =   3.7380739298253E+01
(PID.TID 0000.0001) %MON dynstat_salt_min             =   2.9803795676130E+01
(PID.TID 0000.0001) %MON dynstat_salt_mean            =   3.4716152283662E+01
(PID.TID 0000.0001) %MON dynstat_salt_sd              =   2.9363748505377E-01
(PID.TID 0000.0001) %MON dynstat_salt_del2            =   2.4555514765194E-02
(PID.TID 0000.0001) %MON advcfl_uvel_max              =   2.9665400124130E-02
(PID.TID 0000.0001) %MON advcfl_vvel_max              =   1.6847291483898E-02
(PID.TID 0000.0001) %MON advcfl_wvel_max              =   1.3867242708167E-01
(PID.TID 0000.0001) %MON advcfl_W_hf_max              =   1.3689137846278E-01
(PID.TID 0000.0001) %MON pe_b_mean                    =   2.1742652505104E-04
(PID.TID 0000.0001) %MON ke_max                       =   1.9056467194119E-02
(PID.TID 0000.0001) %MON ke_mean                      =   2.2776057145455E-04
(PID.TID 0000.0001) %MON ke_vol                       =   1.3226782436723E+18
(PID.TID 0000.0001) %MON vort_r_min                   =  -9.6151736307646E-07
(PID.TID 0000.0001) %MON vort_r_max                   =   6.4410938112384E-07
(PID.TID 0000.0001) %MON vort_a_mean                  =  -2.5205768788933E-05
(PID.TID 0000.0001) %MON vort_a_sd                    =   7.3402953345716E-05
(PID.TID 0000.0001) %MON vort_p_mean                  =  -3.1758668795806E-05
(PID.TID 0000.0001) %MON vort_p_sd                    =   1.3126322893319E-04
(PID.TID 0000.0001) %MON surfExpan_theta_mean         =   1.1520167109503E-05
(PID.TID 0000.0001) %MON surfExpan_salt_mean          =   5.3401279714951E-07
(PID.TID 0000.0001) // =======================================================
(PID.TID 0000.0001) // End MONITOR dynamic field statistics
(PID.TID 0000.0001) // =======================================================
time,SST,SSS,fu,fv,Q,E-P,i0,i1,a,b =   2.1168E+06  4.8650E-01  3.4622E+01 -2.8920E-02 -4.4710E-02  2.5776E+02  0.0000E+00     1     2  3.1667E-01  6.8333E-01
time,fu0,fu1,fu =   2.1168E+06 -3.5633E-02 -1.4435E-02 -2.8920E-02  3.1667E-01  6.8333E-01
 cg2d: Sum(rhs),rhsMax =  -2.00603422761958E-13  8.89940298102282E+00
(PID.TID 0000.0001)                    cg2d_init_res =    5.61903473052152E-01
(PID.TID 0000.0001)                       cg2d_iters =    24
(PID.TID 0000.0001)                         cg2d_res =    7.77826524331499E-14
(PID.TID 0000.0001) // =======================================================
(PID.TID 0000.0001) // Begin MONITOR dynamic field statistics
(PID.TID 0000.0001) // =======================================================
(PID.TID 0000.0001) %MON time_tsnumber                =                    50
(PID.TID 0000.0001) %MON time_secondsf                =   2.1600000000000E+06
(PID.TID 0000.0001) %MON dynstat_eta_max              =   1.0770007300471E+00
(PID.TID 0000.0001) %MON dynstat_eta_min              =  -1.1620165632818E+00
(PID.TID 0000.0001) %MON dynstat_eta_mean             =  -1.0076961142563E-17
(PID.TID 0000.0001) %MON dynstat_eta_sd               =   4.1264389161417E-01
(PID.TID 0000.0001) %MON dynstat_eta_del2             =   1.9452222250424E-02
(PID.TID 0000.0001) %MON dynstat_uvel_max             =   1.4042026471047E-01
(PID.TID 0000.0001) %MON dynstat_uvel_min             =  -1.9972327303835E-01
(PID.TID 0000.0001) %MON dynstat_uvel_mean            =  -2.1834095468185E-03
(PID.TID 0000.0001) %MON dynstat_uvel_sd              =   1.6746396738808E-02
(PID.TID 0000.0001) %MON dynstat_uvel_del2            =   5.4566295800530E-03
(PID.TID 0000.0001) %MON dynstat_vvel_max             =   1.7139647785859E-01
(PID.TID 0000.0001) %MON dynstat_vvel_min             =  -1.4380563974902E-01
(PID.TID 0000.0001) %MON dynstat_vvel_mean            =   9.6659393699026E-04
(PID.TID 0000.0001) %MON dynstat_vvel_sd              =   1.4648533746615E-02
(PID.TID 0000.0001) %MON dynstat_vvel_del2            =   5.0892574217765E-03
(PID.TID 0000.0001) %MON dynstat_wvel_max             =   3.0956277473096E-04
(PID.TID 0000.0001) %MON dynstat_wvel_min             =  -2.3696325391586E-04
(PID.TID 0000.0001) %MON dynstat_wvel_mean            =   6.5567175843335E-22
(PID.TID 0000.0001) %MON dynstat_wvel_sd              =   2.8703440646503E-05
(PID.TID 0000.0001) %MON dynstat_wvel_del2            =   1.1867239905316E-05
(PID.TID 0000.0001) %MON dynstat_theta_max            =   2.9672787439104E+01
(PID.TID 0000.0001) %MON dynstat_theta_min            =  -1.9460975040482E+00
(PID.TID 0000.0001) %MON dynstat_theta_mean           =   3.5930352468805E+00
(PID.TID 0000.0001) %MON dynstat_theta_sd             =   4.3453037968478E+00
(PID.TID 0000.0001) %MON dynstat_theta_del2           =   1.3236644597038E-01
(PID.TID 0000.0001) %MON dynstat_salt_max             =   3.7381877501161E+01
(PID.TID 0000.0001) %MON dynstat_salt_min             =   2.9803208279501E+01
(PID.TID 0000.0001) %MON dynstat_salt_mean            =   3.4716151280873E+01
(PID.TID 0000.0001) %MON dynstat_salt_sd              =   2.9362141168505E-01
(PID.TID 0000.0001) %MON dynstat_salt_del2            =   2.4507570051578E-02
(PID.TID 0000.0001) %MON advcfl_uvel_max              =   3.0094636532922E-02
(PID.TID 0000.0001) %MON advcfl_vvel_max              =   1.6649793389452E-02
(PID.TID 0000.0001) %MON advcfl_wvel_max              =   1.4169799114495E-01
(PID.TID 0000.0001) %MON advcfl_W_hf_max              =   1.3512913471483E-01
(PID.TID 0000.0001) %MON pe_b_mean                    =   2.1788736228156E-04
(PID.TID 0000.0001) %MON ke_max                       =   1.9084532133949E-02
(PID.TID 0000.0001) %MON ke_mean                      =   2.2632841454091E-04
(PID.TID 0000.0001) %MON ke_vol                       =   1.3226782436723E+18
(PID.TID 0000.0001) %MON vort_r_min                   =  -9.7933931773398E-07
(PID.TID 0000.0001) %MON vort_r_max                   =   6.2823765817739E-07
(PID.TID 0000.0001) %MON vort_a_mean                  =  -2.5205768758518E-05
(PID.TID 0000.0001) %MON vort_a_sd                    =   7.3402973135454E-05
(PID.TID 0000.0001) %MON vort_p_mean                  =  -3.1758668757484E-05
(PID.TID 0000.0001) %MON vort_p_sd                    =   1.3126325882733E-04
(PID.TID 0000.0001) %MON surfExpan_theta_mean         =   1.1086220112776E-05
(PID.TID 0000.0001) %MON surfExpan_salt_mean          =   2.5426765249264E-07
(PID.TID 0000.0001) // =======================================================
(PID.TID 0000.0001) // End MONITOR dynamic field statistics
(PID.TID 0000.0001) // =======================================================
time,SST,SSS,fu,fv,Q,E-P,i0,i1,a,b =   2.1600E+06  4.6166E-01  3.4617E+01 -2.8567E-02 -4.4050E-02  2.5734E+02  0.0000E+00     1     2  3.3333E-01  6.6667E-01
time,fu0,fu1,fu =   2.1600E+06 -3.5633E-02 -1.4435E-02 -2.8567E-02  3.3333E-01  6.6667E-01
 cg2d: Sum(rhs),rhsMax =   3.85913523359704E-13  8.62674625717915E+00
(PID.TID 0000.0001)                    cg2d_init_res =    5.66984032886830E-01
(PID.TID 0000.0001)                       cg2d_iters =    24
(PID.TID 0000.0001)                         cg2d_res =    6.33969912549397E-14
(PID.TID 0000.0001) // =======================================================
(PID.TID 0000.0001) // Begin MONITOR dynamic field statistics
(PID.TID 0000.0001) // =======================================================
(PID.TID 0000.0001) %MON time_tsnumber                =                    51
(PID.TID 0000.0001) %MON time_secondsf                =   2.2032000000000E+06
(PID.TID 0000.0001) %MON dynstat_eta_max              =   1.0424026068132E+00
(PID.TID 0000.0001) %MON dynstat_eta_min              =  -1.1458618843987E+00
(PID.TID 0000.0001) %MON dynstat_eta_mean             =   4.7635596359766E-17
(PID.TID 0000.0001) %MON dynstat_eta_sd               =   4.1291307047171E-01
(PID.TID 0000.0001) %MON dynstat_eta_del2             =   1.9387610380099E-02
(PID.TID 0000.0001) %MON dynstat_uvel_max             =   1.3765684904331E-01
(PID.TID 0000.0001) %MON dynstat_uvel_min             =  -1.9989897748114E-01
(PID.TID 0000.0001) %MON dynstat_uvel_mean            =  -2.0686936191329E-03
(PID.TID 0000.0001) %MON dynstat_uvel_sd              =   1.6741849157894E-02
(PID.TID 0000.0001) %MON dynstat_uvel_del2            =   5.4264222349093E-03
(PID.TID 0000.0001) %MON dynstat_vvel_max             =   1.6880503666805E-01
(PID.TID 0000.0001) %MON dynstat_vvel_min             =  -1.4138741507884E-01
(PID.TID 0000.0001) %MON dynstat_vvel_mean            =   6.4230357554890E-04
(PID.TID 0000.0001) %MON dynstat_vvel_sd              =   1.4637104643281E-02
(PID.TID 0000.0001) %MON dynstat_vvel_del2            =   5.0719152248688E-03
(PID.TID 0000.0001) %MON dynstat_wvel_max             =   3.1121533515388E-04
(PID.TID 0000.0001) %MON dynstat_wvel_min             =  -2.3393518953875E-04
(PID.TID 0000.0001) %MON dynstat_wvel_mean            =   4.1825257684180E-23
(PID.TID 0000.0001) %MON dynstat_wvel_sd              =   2.8442609159462E-05
(PID.TID 0000.0001) %MON dynstat_wvel_del2            =   1.1765906721245E-05
(PID.TID 0000.0001) %MON dynstat_theta_max            =   2.9679741854741E+01
(PID.TID 0000.0001) %MON dynstat_theta_min            =  -1.9481357225733E+00
(PID.TID 0000.0001) %MON dynstat_theta_mean           =   3.5929652181538E+00
(PID.TID 0000.0001) %MON dynstat_theta_sd             =   4.3449140622026E+00
(PID.TID 0000.0001) %MON dynstat_theta_del2           =   1.3223633298959E-01
(PID.TID 0000.0001) %MON dynstat_salt_max             =   3.7382968851817E+01
(PID.TID 0000.0001) %MON dynstat_salt_min             =   2.9802575832807E+01
(PID.TID 0000.0001) %MON dynstat_salt_mean            =   3.4716153007725E+01
(PID.TID 0000.0001) %MON dynstat_salt_sd              =   2.9361320262234E-01
(PID.TID 0000.0001) %MON dynstat_salt_del2            =   2.4457711058998E-02
(PID.TID 0000.0001) %MON advcfl_uvel_max              =   3.0493082390335E-02
(PID.TID 0000.0001) %MON advcfl_vvel_max              =   1.6398055658651E-02
(PID.TID 0000.0001) %MON advcfl_wvel_max              =   1.6220526682656E-01
(PID.TID 0000.0001) %MON advcfl_W_hf_max              =   1.3133199917536E-01
(PID.TID 0000.0001) %MON pe_b_mean                    =   2.1817172272969E-04
(PID.TID 0000.0001) %MON ke_max                       =   1.9090293340304E-02
(PID.TID 0000.0001) %MON ke_mean                      =   2.2565311723638E-04
(PID.TID 0000.0001) %MON ke_vol                       =   1.3226782436723E+18
(PID.TID 0000.0001) %MON vort_r_min                   =  -9.9616247593603E-07
(PID.TID 0000.0001) %MON vort_r_max                   =   6.3509427066216E-07
(PID.TID 0000.0001) %MON vort_a_mean                  =  -2.5205768730553E-05
(PID.TID 0000.0001) %MON vort_a_sd                    =   7.3402994507594E-05
(PID.TID 0000.0001) %MON vort_p_mean                  =  -3.1758668722249E-05
(PID.TID 0000.0001) %MON vort_p_sd                    =   1.3126328429477E-04
(PID.TID 0000.0001) %MON surfExpan_theta_mean         =   1.0670953396901E-05
(PID.TID 0000.0001) %MON surfExpan_salt_mean          =  -1.9666129024343E-09
(PID.TID 0000.0001) // =======================================================
(PID.TID 0000.0001) // End MONITOR dynamic field statistics
(PID.TID 0000.0001) // =======================================================
time,SST,SSS,fu,fv,Q,E-P,i0,i1,a,b =   2.2032E+06  4.3683E-01  3.4612E+01 -2.8214E-02 -4.3389E-02  2.5692E+02  0.0000E+00     1     2  3.5000E-01  6.5000E-01
time,fu0,fu1,fu =   2.2032E+06 -3.5633E-02 -1.4435E-02 -2.8214E-02  3.5000E-01  6.5000E-01
 cg2d: Sum(rhs),rhsMax =  -5.08204589522165E-14  8.17661275014350E+00
(PID.TID 0000.0001)                    cg2d_init_res =    5.88477129975963E-01
(PID.TID 0000.0001)                       cg2d_iters =    24
(PID.TID 0000.0001)                         cg2d_res =    8.73179960575751E-14
(PID.TID 0000.0001) // =======================================================
(PID.TID 0000.0001) // Begin MONITOR dynamic field statistics
(PID.TID 0000.0001) // =======================================================
(PID.TID 0000.0001) %MON time_tsnumber                =                    52
(PID.TID 0000.0001) %MON time_secondsf                =   2.2464000000000E+06
(PID.TID 0000.0001) %MON dynstat_eta_max              =   9.8650484001036E-01
(PID.TID 0000.0001) %MON dynstat_eta_min              =  -1.1257342654661E+00
(PID.TID 0000.0001) %MON dynstat_eta_mean             =  -1.0175730398113E-16
(PID.TID 0000.0001) %MON dynstat_eta_sd               =   4.1306137076270E-01
(PID.TID 0000.0001) %MON dynstat_eta_del2             =   1.9329296226599E-02
(PID.TID 0000.0001) %MON dynstat_uvel_max             =   1.3501294445180E-01
(PID.TID 0000.0001) %MON dynstat_uvel_min             =  -1.9982317592202E-01
(PID.TID 0000.0001) %MON dynstat_uvel_mean            =  -1.9448915826552E-03
(PID.TID 0000.0001) %MON dynstat_uvel_sd              =   1.6753785024910E-02
(PID.TID 0000.0001) %MON dynstat_uvel_del2            =   5.3967461031042E-03
(PID.TID 0000.0001) %MON dynstat_vvel_max             =   1.6573544604729E-01
(PID.TID 0000.0001) %MON dynstat_vvel_min             =  -1.4224882637110E-01
(PID.TID 0000.0001) %MON dynstat_vvel_mean            =   3.2376150612014E-04
(PID.TID 0000.0001) %MON dynstat_vvel_sd              =   1.4655784744480E-02
(PID.TID 0000.0001) %MON dynstat_vvel_del2            =   5.0530409851856E-03
(PID.TID 0000.0001) %MON dynstat_wvel_max             =   3.1238530422068E-04
(PID.TID 0000.0001) %MON dynstat_wvel_min             =  -2.3573098853717E-04
(PID.TID 0000.0001) %MON dynstat_wvel_mean            =  -9.7178792002568E-23
(PID.TID 0000.0001) %MON dynstat_wvel_sd              =   2.8202206960165E-05
(PID.TID 0000.0001) %MON dynstat_wvel_del2            =   1.1661240671765E-05
(PID.TID 0000.0001) %MON dynstat_theta_max            =   2.9685365586343E+01
(PID.TID 0000.0001) %MON dynstat_theta_min            =  -1.9500114487975E+00
(PID.TID 0000.0001) %MON dynstat_theta_mean           =   3.5928990279187E+00
(PID.TID 0000.0001) %MON dynstat_theta_sd             =   4.3445381132447E+00
(PID.TID 0000.0001) %MON dynstat_theta_del2           =   1.3209891812379E-01
(PID.TID 0000.0001) %MON dynstat_salt_max             =   3.7383994638579E+01
(PID.TID 0000.0001) %MON dynstat_salt_min             =   2.9801901309423E+01
(PID.TID 0000.0001) %MON dynstat_salt_mean            =   3.4716157004249E+01
(PID.TID 0000.0001) %MON dynstat_salt_sd              =   2.9361243219808E-01
(PID.TID 0000.0001) %MON dynstat_salt_del2            =   2.4406813114496E-02
(PID.TID 0000.0001) %MON advcfl_uvel_max              =   3.1106240800834E-02
(PID.TID 0000.0001) %MON advcfl_vvel_max              =   1.6099869545002E-02
(PID.TID 0000.0001) %MON advcfl_wvel_max              =   1.7753661328383E-01
(PID.TID 0000.0001) %MON advcfl_W_hf_max              =   1.2615938045923E-01
(PID.TID 0000.0001) %MON pe_b_mean                    =   2.1832846632788E-04
(PID.TID 0000.0001) %MON ke_max                       =   1.9192043276304E-02
(PID.TID 0000.0001) %MON ke_mean                      =   2.2571651240000E-04
(PID.TID 0000.0001) %MON ke_vol                       =   1.3226782436723E+18
(PID.TID 0000.0001) %MON vort_r_min                   =  -1.0119289670083E-06
(PID.TID 0000.0001) %MON vort_r_max                   =   6.4789940725653E-07
(PID.TID 0000.0001) %MON vort_a_mean                  =  -2.5205768704875E-05
(PID.TID 0000.0001) %MON vort_a_sd                    =   7.3403017402669E-05
(PID.TID 0000.0001) %MON vort_p_mean                  =  -3.1758668689895E-05
(PID.TID 0000.0001) %MON vort_p_sd                    =   1.3126330489340E-04
(PID.TID 0000.0001) %MON surfExpan_theta_mean         =   1.0299417798565E-05
(PID.TID 0000.0001) %MON surfExpan_salt_mean          =  -2.2428895123473E-07
(PID.TID 0000.0001) // =======================================================
(PID.TID 0000.0001) // End MONITOR dynamic field statistics
(PID.TID 0000.0001) // =======================================================
time,SST,SSS,fu,fv,Q,E-P,i0,i1,a,b =   2.2464E+06  4.1199E-01  3.4607E+01 -2.7860E-02 -4.2729E-02  2.5650E+02  0.0000E+00     1     2  3.6667E-01  6.3333E-01
time,fu0,fu1,fu =   2.2464E+06 -3.5633E-02 -1.4435E-02 -2.7860E-02  3.6667E-01  6.3333E-01
 cg2d: Sum(rhs),rhsMax =  -2.58112975437541E-13  7.98902779509074E+00
(PID.TID 0000.0001)                    cg2d_init_res =    5.96107259972714E-01
(PID.TID 0000.0001)                       cg2d_iters =    24
(PID.TID 0000.0001)                         cg2d_res =    9.73022268886487E-14
(PID.TID 0000.0001) // =======================================================
(PID.TID 0000.0001) // Begin MONITOR dynamic field statistics
(PID.TID 0000.0001) // =======================================================
(PID.TID 0000.0001) %MON time_tsnumber                =                    53
(PID.TID 0000.0001) %MON time_secondsf                =   2.2896000000000E+06
(PID.TID 0000.0001) %MON dynstat_eta_max              =   9.1039405313658E-01
(PID.TID 0000.0001) %MON dynstat_eta_min              =  -1.1240028840133E+00
(PID.TID 0000.0001) %MON dynstat_eta_mean             =  -3.1411805759098E-17
(PID.TID 0000.0001) %MON dynstat_eta_sd               =   4.1314529271933E-01
(PID.TID 0000.0001) %MON dynstat_eta_del2             =   1.9265475064253E-02
(PID.TID 0000.0001) %MON dynstat_uvel_max             =   1.3775403227880E-01
(PID.TID 0000.0001) %MON dynstat_uvel_min             =  -1.9949852382801E-01
(PID.TID 0000.0001) %MON dynstat_uvel_mean            =  -1.8132460070436E-03
(PID.TID 0000.0001) %MON dynstat_uvel_sd              =   1.6783783840182E-02
(PID.TID 0000.0001) %MON dynstat_uvel_del2            =   5.3676692749518E-03
(PID.TID 0000.0001) %MON dynstat_vvel_max             =   1.6227133090878E-01
(PID.TID 0000.0001) %MON dynstat_vvel_min             =  -1.4264535333459E-01
(PID.TID 0000.0001) %MON dynstat_vvel_mean            =   1.4602043669218E-05
(PID.TID 0000.0001) %MON dynstat_vvel_sd              =   1.4699429263543E-02
(PID.TID 0000.0001) %MON dynstat_vvel_del2            =   5.0301984300004E-03
(PID.TID 0000.0001) %MON dynstat_wvel_max             =   3.1309788491502E-04
(PID.TID 0000.0001) %MON dynstat_wvel_min             =  -2.3794151389923E-04
(PID.TID 0000.0001) %MON dynstat_wvel_mean            =  -1.1580848163889E-22
(PID.TID 0000.0001) %MON dynstat_wvel_sd              =   2.7983795602007E-05
(PID.TID 0000.0001) %MON dynstat_wvel_del2            =   1.1550988995668E-05
(PID.TID 0000.0001) %MON dynstat_theta_max            =   2.9689754147912E+01
(PID.TID 0000.0001) %MON dynstat_theta_min            =  -1.9517345922522E+00
(PID.TID 0000.0001) %MON dynstat_theta_mean           =   3.5928357546131E+00
(PID.TID 0000.0001) %MON dynstat_theta_sd             =   4.3441813030571E+00
(PID.TID 0000.0001) %MON dynstat_theta_del2           =   1.3198604629994E-01
(PID.TID 0000.0001) %MON dynstat_salt_max             =   3.7384941062015E+01
(PID.TID 0000.0001) %MON dynstat_salt_min             =   2.9801185972402E+01
(PID.TID 0000.0001) %MON dynstat_salt_mean            =   3.4716162734416E+01
(PID.TID 0000.0001) %MON dynstat_salt_sd              =   2.9361900132243E-01
(PID.TID 0000.0001) %MON dynstat_salt_del2            =   2.4355504771587E-02
(PID.TID 0000.0001) %MON advcfl_uvel_max              =   3.1688764822521E-02
(PID.TID 0000.0001) %MON advcfl_vvel_max              =   1.5763358538159E-02
(PID.TID 0000.0001) %MON advcfl_wvel_max              =   1.8745278781301E-01
(PID.TID 0000.0001) %MON advcfl_W_hf_max              =   1.3274388883236E-01
(PID.TID 0000.0001) %MON pe_b_mean                    =   2.1841719122293E-04
(PID.TID 0000.0001) %MON ke_max                       =   1.9439185439655E-02
(PID.TID 0000.0001) %MON ke_mean                      =   2.2647704523384E-04
(PID.TID 0000.0001) %MON ke_vol                       =   1.3226782436723E+18
(PID.TID 0000.0001) %MON vort_r_min                   =  -1.0265907730086E-06
(PID.TID 0000.0001) %MON vort_r_max                   =   6.5962296296700E-07
(PID.TID 0000.0001) %MON vort_a_mean                  =  -2.5205768680825E-05
(PID.TID 0000.0001) %MON vort_a_sd                    =   7.3403041680028E-05
(PID.TID 0000.0001) %MON vort_p_mean                  =  -3.1758668659593E-05
(PID.TID 0000.0001) %MON vort_p_sd                    =   1.3126332018594E-04
(PID.TID 0000.0001) %MON surfExpan_theta_mean         =   9.9981816369581E-06
(PID.TID 0000.0001) %MON surfExpan_salt_mean          =  -4.0364594367448E-07
(PID.TID 0000.0001) // =======================================================
(PID.TID 0000.0001) // End MONITOR dynamic field statistics
(PID.TID 0000.0001) // =======================================================
time,SST,SSS,fu,fv,Q,E-P,i0,i1,a,b =   2.2896E+06  3.8715E-01  3.4602E+01 -2.7507E-02 -4.2069E-02  2.5608E+02  0.0000E+00     1     2  3.8333E-01  6.1667E-01
time,fu0,fu1,fu =   2.2896E+06 -3.5633E-02 -1.4435E-02 -2.7507E-02  3.8333E-01  6.1667E-01
 cg2d: Sum(rhs),rhsMax =   2.91502932903143E-13  8.10539979254896E+00
(PID.TID 0000.0001)                    cg2d_init_res =    5.84267437828909E-01
(PID.TID 0000.0001)                       cg2d_iters =    25
(PID.TID 0000.0001)                         cg2d_res =    2.50075452202038E-14
(PID.TID 0000.0001) // =======================================================
(PID.TID 0000.0001) // Begin MONITOR dynamic field statistics
(PID.TID 0000.0001) // =======================================================
(PID.TID 0000.0001) %MON time_tsnumber                =                    54
(PID.TID 0000.0001) %MON time_secondsf                =   2.3328000000000E+06
(PID.TID 0000.0001) %MON dynstat_eta_max              =   9.1594062243617E-01
(PID.TID 0000.0001) %MON dynstat_eta_min              =  -1.1671530410921E+00
(PID.TID 0000.0001) %MON dynstat_eta_mean             =  -1.4878016655191E-16
(PID.TID 0000.0001) %MON dynstat_eta_sd               =   4.1322720246647E-01
(PID.TID 0000.0001) %MON dynstat_eta_del2             =   1.9188981015378E-02
(PID.TID 0000.0001) %MON dynstat_uvel_max             =   1.4216080613619E-01
(PID.TID 0000.0001) %MON dynstat_uvel_min             =  -1.9892897914513E-01
(PID.TID 0000.0001) %MON dynstat_uvel_mean            =  -1.6752479727953E-03
(PID.TID 0000.0001) %MON dynstat_uvel_sd              =   1.6833691139599E-02
(PID.TID 0000.0001) %MON dynstat_uvel_del2            =   5.3412051524665E-03
(PID.TID 0000.0001) %MON dynstat_vvel_max             =   1.6239621777490E-01
(PID.TID 0000.0001) %MON dynstat_vvel_min             =  -1.4258600082066E-01
(PID.TID 0000.0001) %MON dynstat_vvel_mean            =  -2.8186336946256E-04
(PID.TID 0000.0001) %MON dynstat_vvel_sd              =   1.4761167006576E-02
(PID.TID 0000.0001) %MON dynstat_vvel_del2            =   5.0025538529369E-03
(PID.TID 0000.0001) %MON dynstat_wvel_max             =   3.1338444808342E-04
(PID.TID 0000.0001) %MON dynstat_wvel_min             =  -2.3965876983241E-04
(PID.TID 0000.0001) %MON dynstat_wvel_mean            =   1.3065167523067E-22
(PID.TID 0000.0001) %MON dynstat_wvel_sd              =   2.7785304230135E-05
(PID.TID 0000.0001) %MON dynstat_wvel_del2            =   1.1432365231211E-05
(PID.TID 0000.0001) %MON dynstat_theta_max            =   2.9693007152552E+01
(PID.TID 0000.0001) %MON dynstat_theta_min            =  -1.9533129747369E+00
(PID.TID 0000.0001) %MON dynstat_theta_mean           =   3.5927743065381E+00
(PID.TID 0000.0001) %MON dynstat_theta_sd             =   4.3438459583401E+00
(PID.TID 0000.0001) %MON dynstat_theta_del2           =   1.3186313145139E-01
(PID.TID 0000.0001) %MON dynstat_salt_max             =   3.7385799318209E+01
(PID.TID 0000.0001) %MON dynstat_salt_min             =   2.9800429325401E+01
(PID.TID 0000.0001) %MON dynstat_salt_mean            =   3.4716169606144E+01
(PID.TID 0000.0001) %MON dynstat_salt_sd              =   2.9363224065951E-01
(PID.TID 0000.0001) %MON dynstat_salt_del2            =   2.4307250817974E-02
(PID.TID 0000.0001) %MON advcfl_uvel_max              =   3.2231077859993E-02
(PID.TID 0000.0001) %MON advcfl_vvel_max              =   1.5775490295730E-02
(PID.TID 0000.0001) %MON advcfl_wvel_max              =   1.9190206092302E-01
(PID.TID 0000.0001) %MON advcfl_W_hf_max              =   1.4178519952545E-01
(PID.TID 0000.0001) %MON pe_b_mean                    =   2.1850380612909E-04
(PID.TID 0000.0001) %MON ke_max                       =   1.9647923712019E-02
(PID.TID 0000.0001) %MON ke_mean                      =   2.2787269043690E-04
(PID.TID 0000.0001) %MON ke_vol                       =   1.3226782436723E+18
(PID.TID 0000.0001) %MON vort_r_min                   =  -1.0401092439607E-06
(PID.TID 0000.0001) %MON vort_r_max                   =   6.7020947420156E-07
(PID.TID 0000.0001) %MON vort_a_mean                  =  -2.5205768657829E-05
(PID.TID 0000.0001) %MON vort_a_sd                    =   7.3403067129214E-05
(PID.TID 0000.0001) %MON vort_p_mean                  =  -3.1758668630618E-05
(PID.TID 0000.0001) %MON vort_p_sd                    =   1.3126332977065E-04
(PID.TID 0000.0001) %MON surfExpan_theta_mean         =   9.7819340092005E-06
(PID.TID 0000.0001) %MON surfExpan_salt_mean          =  -5.3450702541588E-07
(PID.TID 0000.0001) // =======================================================
(PID.TID 0000.0001) // End MONITOR dynamic field statistics
(PID.TID 0000.0001) // =======================================================
(PID.TID 0000.0001)  MDS_WRITE_RL_VEC: irec =  00000010   00066240
(PID.TID 0000.0001)  MDS_WRITE_RL_VEC: irec =  00000010   00066240
(PID.TID 0000.0001)  MDS_WRITE_RL_VEC: irec =  00000010   00066240
(PID.TID 0000.0001)  MDS_WRITE_RL_VEC: irec =  00000010   00066240
(PID.TID 0000.0001)  MDS_WRITE_RL_VEC: irec =  00000010   00066240
(PID.TID 0000.0001)  MDS_WRITE_RL_VEC: irec =  00000010   00066240
(PID.TID 0000.0001)  MDS_WRITE_RL_VEC: irec =  00000010   00066240
(PID.TID 0000.0001)  MDS_WRITE_RL_VEC: irec =  00000010   00066240
(PID.TID 0000.0001)  MDS_WRITE_RL_VEC: irec =  00000010   00066240
(PID.TID 0000.0001)  MDS_WRITE_RL_VEC: irec =  00000010   00066240
(PID.TID 0000.0001)  MDS_WRITE_RL_VEC: irec =  00000010   00066240
(PID.TID 0000.0001)  MDS_WRITE_RL_VEC: irec =  00000010   00004416
(PID.TID 0000.0001)  MDS_WRITE_RL_VEC: irec =  00000010   00066240
(PID.TID 0000.0001)  MDS_WRITE_RL_VEC: irec =  00000010   00004416
(PID.TID 0000.0001)  MDS_WRITE_RL_VEC: irec =  00000010   00004416
(PID.TID 0000.0001)  MDS_WRITE_RL_VEC: irec =  00000010   00004416
(PID.TID 0000.0001)  MDS_WRITE_RL_VEC: irec =  00000010   00004416
(PID.TID 0000.0001)  MDS_WRITE_RL_VEC: irec =  00000010   00004416
(PID.TID 0000.0001)  MDS_WRITE_RL_VEC: irec =  00000010   00004416
(PID.TID 0000.0001)  MDS_WRITE_RL_VEC: irec =  00000010   00004416
(PID.TID 0000.0001)  MDS_WRITE_RL_VEC: irec =  00000010   00004416
(PID.TID 0000.0001)  MDS_WRITE_RL_VEC: irec =  00000010   00004416
(PID.TID 0000.0001)  MDS_WRITE_RL_VEC: irec =  00000010   00004416
(PID.TID 0000.0001)  MDS_WRITE_RL_VEC: irec =  00000010   00004416
(PID.TID 0000.0001)  MDS_WRITE_RL_VEC: irec =  00000010   00004416
(PID.TID 0000.0001)  MDS_WRITE_RL_VEC: irec =  00000010   00004416
(PID.TID 0000.0001)  MDS_WRITE_RL_VEC: irec =  00000010   00004416
(PID.TID 0000.0001)  MDS_WRITE_RL_VEC: irec =  00000010   00004416
(PID.TID 0000.0001)  MDS_WRITE_RL_VEC: irec =  00000010   00004416
(PID.TID 0000.0001)  MDS_WRITE_RL_VEC: irec =  00000010   00004416
(PID.TID 0000.0001)  MDS_WRITE_RL_VEC: irec =  00000010   00004416
time,SST,SSS,fu,fv,Q,E-P,i0,i1,a,b =   2.3328E+06  3.6231E-01  3.4597E+01 -2.7154E-02 -4.1408E-02  2.5565E+02  0.0000E+00     1     2  4.0000E-01  6.0000E-01
time,fu0,fu1,fu =   2.3328E+06 -3.5633E-02 -1.4435E-02 -2.7154E-02  4.0000E-01  6.0000E-01
 cg2d: Sum(rhs),rhsMax =  -3.00356961524528E-13  8.20893301536877E+00
(PID.TID 0000.0001)                    cg2d_init_res =    5.74919387348592E-01
(PID.TID 0000.0001)                       cg2d_iters =    25
(PID.TID 0000.0001)                         cg2d_res =    2.53334395966005E-14
(PID.TID 0000.0001) // =======================================================
(PID.TID 0000.0001) // Begin MONITOR dynamic field statistics
(PID.TID 0000.0001) // =======================================================
(PID.TID 0000.0001) %MON time_tsnumber                =                    55
(PID.TID 0000.0001) %MON time_secondsf                =   2.3760000000000E+06
(PID.TID 0000.0001) %MON dynstat_eta_max              =   9.2848443218345E-01
(PID.TID 0000.0001) %MON dynstat_eta_min              =  -1.2045150168702E+00
(PID.TID 0000.0001) %MON dynstat_eta_mean             =  -3.3583183736451E-16
(PID.TID 0000.0001) %MON dynstat_eta_sd               =   4.1336960706682E-01
(PID.TID 0000.0001) %MON dynstat_eta_del2             =   1.9091583166358E-02
(PID.TID 0000.0001) %MON dynstat_uvel_max             =   1.5077056032695E-01
(PID.TID 0000.0001) %MON dynstat_uvel_min             =  -1.9811985473151E-01
(PID.TID 0000.0001) %MON dynstat_uvel_mean            =  -1.5325442564460E-03
(PID.TID 0000.0001) %MON dynstat_uvel_sd              =   1.6905274081674E-02
(PID.TID 0000.0001) %MON dynstat_uvel_del2            =   5.3153336395530E-03
(PID.TID 0000.0001) %MON dynstat_vvel_max             =   1.6338441077528E-01
(PID.TID 0000.0001) %MON dynstat_vvel_min             =  -1.4209152982797E-01
(PID.TID 0000.0001) %MON dynstat_vvel_mean            =  -5.6267404220644E-04
(PID.TID 0000.0001) %MON dynstat_vvel_sd              =   1.4833258569747E-02
(PID.TID 0000.0001) %MON dynstat_vvel_del2            =   4.9721065135166E-03
(PID.TID 0000.0001) %MON dynstat_wvel_max             =   3.1470706589935E-04
(PID.TID 0000.0001) %MON dynstat_wvel_min             =  -2.4070178953757E-04
(PID.TID 0000.0001) %MON dynstat_wvel_mean            =   4.5648407621667E-23
(PID.TID 0000.0001) %MON dynstat_wvel_sd              =   2.7601749591144E-05
(PID.TID 0000.0001) %MON dynstat_wvel_del2            =   1.1309347976687E-05
(PID.TID 0000.0001) %MON dynstat_theta_max            =   2.9716306081945E+01
(PID.TID 0000.0001) %MON dynstat_theta_min            =  -1.9547517611187E+00
(PID.TID 0000.0001) %MON dynstat_theta_mean           =   3.5927134825628E+00
(PID.TID 0000.0001) %MON dynstat_theta_sd             =   4.3435331349442E+00
(PID.TID 0000.0001) %MON dynstat_theta_del2           =   1.3176876977802E-01
(PID.TID 0000.0001) %MON dynstat_salt_max             =   3.7386565442109E+01
(PID.TID 0000.0001) %MON dynstat_salt_min             =   2.9799629404332E+01
(PID.TID 0000.0001) %MON dynstat_salt_mean            =   3.4716177016717E+01
(PID.TID 0000.0001) %MON dynstat_salt_sd              =   2.9365153654217E-01
(PID.TID 0000.0001) %MON dynstat_salt_del2            =   2.4259343637743E-02
(PID.TID 0000.0001) %MON advcfl_uvel_max              =   3.2724295661714E-02
(PID.TID 0000.0001) %MON advcfl_vvel_max              =   1.5871485321362E-02
(PID.TID 0000.0001) %MON advcfl_wvel_max              =   1.9100886644426E-01
(PID.TID 0000.0001) %MON advcfl_W_hf_max              =   1.5808319527580E-01
(PID.TID 0000.0001) %MON pe_b_mean                    =   2.1865443178260E-04
(PID.TID 0000.0001) %MON ke_max                       =   1.9816498289843E-02
(PID.TID 0000.0001) %MON ke_mean                      =   2.2982624827066E-04
(PID.TID 0000.0001) %MON ke_vol                       =   1.3226782436723E+18
(PID.TID 0000.0001) %MON vort_r_min                   =  -1.0524526557599E-06
(PID.TID 0000.0001) %MON vort_r_max                   =   6.7961217966767E-07
(PID.TID 0000.0001) %MON vort_a_mean                  =  -2.5205768635291E-05
(PID.TID 0000.0001) %MON vort_a_sd                    =   7.3403093489473E-05
(PID.TID 0000.0001) %MON vort_p_mean                  =  -3.1758668602221E-05
(PID.TID 0000.0001) %MON vort_p_sd                    =   1.3126333333933E-04
(PID.TID 0000.0001) %MON surfExpan_theta_mean         =   9.6622060914855E-06
(PID.TID 0000.0001) %MON surfExpan_salt_mean          =  -6.1384943073628E-07
(PID.TID 0000.0001) // =======================================================
(PID.TID 0000.0001) // End MONITOR dynamic field statistics
(PID.TID 0000.0001) // =======================================================
time,SST,SSS,fu,fv,Q,E-P,i0,i1,a,b =   2.3760E+06  3.3747E-01  3.4592E+01 -2.6800E-02 -4.0748E-02  2.5523E+02  0.0000E+00     1     2  4.1667E-01  5.8333E-01
time,fu0,fu1,fu =   2.3760E+06 -3.5633E-02 -1.4435E-02 -2.6800E-02  4.1667E-01  5.8333E-01
 cg2d: Sum(rhs),rhsMax =  -4.65072425015478E-13  8.29950274871825E+00
(PID.TID 0000.0001)                    cg2d_init_res =    5.66184518329940E-01
(PID.TID 0000.0001)                       cg2d_iters =    25
(PID.TID 0000.0001)                         cg2d_res =    2.50401682407801E-14
(PID.TID 0000.0001) // =======================================================
(PID.TID 0000.0001) // Begin MONITOR dynamic field statistics
(PID.TID 0000.0001) // =======================================================
(PID.TID 0000.0001) %MON time_tsnumber                =                    56
(PID.TID 0000.0001) %MON time_secondsf                =   2.4192000000000E+06
(PID.TID 0000.0001) %MON dynstat_eta_max              =   9.3901558178875E-01
(PID.TID 0000.0001) %MON dynstat_eta_min              =  -1.2357047406943E+00
(PID.TID 0000.0001) %MON dynstat_eta_mean             =  -1.0889831742627E-16
(PID.TID 0000.0001) %MON dynstat_eta_sd               =   4.1362868192254E-01
(PID.TID 0000.0001) %MON dynstat_eta_del2             =   1.9018801598303E-02
(PID.TID 0000.0001) %MON dynstat_uvel_max             =   1.6200892833731E-01
(PID.TID 0000.0001) %MON dynstat_uvel_min             =  -1.9707775968695E-01
(PID.TID 0000.0001) %MON dynstat_uvel_mean            =  -1.3868507690250E-03
(PID.TID 0000.0001) %MON dynstat_uvel_sd              =   1.6999872267364E-02
(PID.TID 0000.0001) %MON dynstat_uvel_del2            =   5.2900760926539E-03
(PID.TID 0000.0001) %MON dynstat_vvel_max             =   1.6417346285362E-01
(PID.TID 0000.0001) %MON dynstat_vvel_min             =  -1.4119297436057E-01
(PID.TID 0000.0001) %MON dynstat_vvel_mean            =  -8.2524089159101E-04
(PID.TID 0000.0001) %MON dynstat_vvel_sd              =   1.4908027770076E-02
(PID.TID 0000.0001) %MON dynstat_vvel_del2            =   4.9395250756143E-03
(PID.TID 0000.0001) %MON dynstat_wvel_max             =   3.1961806848644E-04
(PID.TID 0000.0001) %MON dynstat_wvel_min             =  -2.4090388527513E-04
(PID.TID 0000.0001) %MON dynstat_wvel_mean            =  -1.0437379448021E-21
(PID.TID 0000.0001) %MON dynstat_wvel_sd              =   2.7426401135794E-05
(PID.TID 0000.0001) %MON dynstat_wvel_del2            =   1.1185580055148E-05
(PID.TID 0000.0001) %MON dynstat_theta_max            =   2.9759525038827E+01
(PID.TID 0000.0001) %MON dynstat_theta_min            =  -1.9560516421394E+00
(PID.TID 0000.0001) %MON dynstat_theta_mean           =   3.5926520657347E+00
(PID.TID 0000.0001) %MON dynstat_theta_sd             =   4.3432424471569E+00
(PID.TID 0000.0001) %MON dynstat_theta_del2           =   1.3163294946969E-01
(PID.TID 0000.0001) %MON dynstat_salt_max             =   3.7387239753526E+01
(PID.TID 0000.0001) %MON dynstat_salt_min             =   2.9798782921961E+01
(PID.TID 0000.0001) %MON dynstat_salt_mean            =   3.4716184375424E+01
(PID.TID 0000.0001) %MON dynstat_salt_sd              =   2.9367602042122E-01
(PID.TID 0000.0001) %MON dynstat_salt_del2            =   2.4211565500406E-02
(PID.TID 0000.0001) %MON advcfl_uvel_max              =   3.3166863116424E-02
(PID.TID 0000.0001) %MON advcfl_vvel_max              =   1.5948135403336E-02
(PID.TID 0000.0001) %MON advcfl_wvel_max              =   1.8508152232022E-01
(PID.TID 0000.0001) %MON advcfl_W_hf_max              =   1.7011990922213E-01
(PID.TID 0000.0001) %MON pe_b_mean                    =   2.1892859619194E-04
(PID.TID 0000.0001) %MON ke_max                       =   1.9943664107944E-02
(PID.TID 0000.0001) %MON ke_mean                      =   2.3225210110169E-04
(PID.TID 0000.0001) %MON ke_vol                       =   1.3226782436723E+18
(PID.TID 0000.0001) %MON vort_r_min                   =  -1.0635934260237E-06
(PID.TID 0000.0001) %MON vort_r_max                   =   6.8779305358625E-07
(PID.TID 0000.0001) %MON vort_a_mean                  =  -2.5205768612673E-05
(PID.TID 0000.0001) %MON vort_a_sd                    =   7.3403120466535E-05
(PID.TID 0000.0001) %MON vort_p_mean                  =  -3.1758668573723E-05
(PID.TID 0000.0001) %MON vort_p_sd                    =   1.3126333069689E-04
(PID.TID 0000.0001) %MON surfExpan_theta_mean         =   9.6452979218679E-06
(PID.TID 0000.0001) %MON surfExpan_salt_mean          =  -6.4134699403261E-07
(PID.TID 0000.0001) // =======================================================
(PID.TID 0000.0001) // End MONITOR dynamic field statistics
(PID.TID 0000.0001) // =======================================================
time,SST,SSS,fu,fv,Q,E-P,i0,i1,a,b =   2.4192E+06  3.1264E-01  3.4587E+01 -2.6447E-02 -4.0088E-02  2.5481E+02  0.0000E+00     1     2  4.3333E-01  5.6667E-01
time,fu0,fu1,fu =   2.4192E+06 -3.5633E-02 -1.4435E-02 -2.6447E-02  4.3333E-01  5.6667E-01
 cg2d: Sum(rhs),rhsMax =   1.45744527557667E-13  8.37678260928996E+00
(PID.TID 0000.0001)                    cg2d_init_res =    5.56435395153421E-01
(PID.TID 0000.0001)                       cg2d_iters =    25
(PID.TID 0000.0001)                         cg2d_res =    2.43338710480828E-14
(PID.TID 0000.0001) // =======================================================
(PID.TID 0000.0001) // Begin MONITOR dynamic field statistics
(PID.TID 0000.0001) // =======================================================
(PID.TID 0000.0001) %MON time_tsnumber                =                    57
(PID.TID 0000.0001) %MON time_secondsf                =   2.4624000000000E+06
(PID.TID 0000.0001) %MON dynstat_eta_max              =   9.9351504543236E-01
(PID.TID 0000.0001) %MON dynstat_eta_min              =  -1.2605191013809E+00
(PID.TID 0000.0001) %MON dynstat_eta_mean             =   1.0299601007196E-16
(PID.TID 0000.0001) %MON dynstat_eta_sd               =   4.1404814003123E-01
(PID.TID 0000.0001) %MON dynstat_eta_del2             =   1.9021621219320E-02
(PID.TID 0000.0001) %MON dynstat_uvel_max             =   1.7225779427696E-01
(PID.TID 0000.0001) %MON dynstat_uvel_min             =  -1.9581046442044E-01
(PID.TID 0000.0001) %MON dynstat_uvel_mean            =  -1.2398784542999E-03
(PID.TID 0000.0001) %MON dynstat_uvel_sd              =   1.7118073130054E-02
(PID.TID 0000.0001) %MON dynstat_uvel_del2            =   5.2659163565984E-03
(PID.TID 0000.0001) %MON dynstat_vvel_max             =   1.6477176586577E-01
(PID.TID 0000.0001) %MON dynstat_vvel_min             =  -1.3992965427268E-01
(PID.TID 0000.0001) %MON dynstat_vvel_mean            =  -1.0673625995526E-03
(PID.TID 0000.0001) %MON dynstat_vvel_sd              =   1.4978719405363E-02
(PID.TID 0000.0001) %MON dynstat_vvel_del2            =   4.9060870086720E-03
(PID.TID 0000.0001) %MON dynstat_wvel_max             =   3.2423627145655E-04
(PID.TID 0000.0001) %MON dynstat_wvel_min             =  -2.4012190401169E-04
(PID.TID 0000.0001) %MON dynstat_wvel_mean            =   9.4081559835395E-23
(PID.TID 0000.0001) %MON dynstat_wvel_sd              =   2.7252266791843E-05
(PID.TID 0000.0001) %MON dynstat_wvel_del2            =   1.1061638698225E-05
(PID.TID 0000.0001) %MON dynstat_theta_max            =   2.9794185379257E+01
(PID.TID 0000.0001) %MON dynstat_theta_min            =  -1.9572100394458E+00
(PID.TID 0000.0001) %MON dynstat_theta_mean           =   3.5925888940942E+00
(PID.TID 0000.0001) %MON dynstat_theta_sd             =   4.3429714986681E+00
(PID.TID 0000.0001) %MON dynstat_theta_del2           =   1.3149024617657E-01
(PID.TID 0000.0001) %MON dynstat_salt_max             =   3.7387826361919E+01
(PID.TID 0000.0001) %MON dynstat_salt_min             =   2.9797885594184E+01
(PID.TID 0000.0001) %MON dynstat_salt_mean            =   3.4716191133624E+01
(PID.TID 0000.0001) %MON dynstat_salt_sd              =   2.9370473073421E-01
(PID.TID 0000.0001) %MON dynstat_salt_del2            =   2.4163229924376E-02
(PID.TID 0000.0001) %MON advcfl_uvel_max              =   3.3552598482763E-02
(PID.TID 0000.0001) %MON advcfl_vvel_max              =   1.6006255743153E-02
(PID.TID 0000.0001) %MON advcfl_wvel_max              =   1.9415361378006E-01
(PID.TID 0000.0001) %MON advcfl_W_hf_max              =   1.7757373459447E-01
(PID.TID 0000.0001) %MON pe_b_mean                    =   2.1937284941569E-04
(PID.TID 0000.0001) %MON ke_max                       =   2.0028681766708E-02
(PID.TID 0000.0001) %MON ke_mean                      =   2.3506308567380E-04
(PID.TID 0000.0001) %MON ke_vol                       =   1.3226782436723E+18
(PID.TID 0000.0001) %MON vort_r_min                   =  -1.0735014774402E-06
(PID.TID 0000.0001) %MON vort_r_max                   =   6.9472237233316E-07
(PID.TID 0000.0001) %MON vort_a_mean                  =  -2.5205768589468E-05
(PID.TID 0000.0001) %MON vort_a_sd                    =   7.3403147749664E-05
(PID.TID 0000.0001) %MON vort_p_mean                  =  -3.1758668544486E-05
(PID.TID 0000.0001) %MON vort_p_sd                    =   1.3126332181851E-04
(PID.TID 0000.0001) %MON surfExpan_theta_mean         =   9.7324719152148E-06
(PID.TID 0000.0001) %MON surfExpan_salt_mean          =  -6.1914890438309E-07
(PID.TID 0000.0001) // =======================================================
(PID.TID 0000.0001) // End MONITOR dynamic field statistics
(PID.TID 0000.0001) // =======================================================
time,SST,SSS,fu,fv,Q,E-P,i0,i1,a,b =   2.4624E+06  2.8780E-01  3.4582E+01 -2.6094E-02 -3.9427E-02  2.5439E+02  0.0000E+00     1     2  4.5000E-01  5.5000E-01
time,fu0,fu1,fu =   2.4624E+06 -3.5633E-02 -1.4435E-02 -2.6094E-02  4.5000E-01  5.5000E-01
 cg2d: Sum(rhs),rhsMax =   4.16333634234434E-16  9.30280280562477E+00
(PID.TID 0000.0001)                    cg2d_init_res =    4.94074532671507E-01
(PID.TID 0000.0001)                       cg2d_iters =    24
(PID.TID 0000.0001)                         cg2d_res =    9.76759112606674E-14
(PID.TID 0000.0001) // =======================================================
(PID.TID 0000.0001) // Begin MONITOR dynamic field statistics
(PID.TID 0000.0001) // =======================================================
(PID.TID 0000.0001) %MON time_tsnumber                =                    58
(PID.TID 0000.0001) %MON time_secondsf                =   2.5056000000000E+06
(PID.TID 0000.0001) %MON dynstat_eta_max              =   1.1044690502498E+00
(PID.TID 0000.0001) %MON dynstat_eta_min              =  -1.2789240647640E+00
(PID.TID 0000.0001) %MON dynstat_eta_mean             =  -1.3902354494613E-16
(PID.TID 0000.0001) %MON dynstat_eta_sd               =   4.1465460716463E-01
(PID.TID 0000.0001) %MON dynstat_eta_del2             =   1.9068253814479E-02
(PID.TID 0000.0001) %MON dynstat_uvel_max             =   1.8136107635865E-01
(PID.TID 0000.0001) %MON dynstat_uvel_min             =  -1.9432668871806E-01
(PID.TID 0000.0001) %MON dynstat_uvel_mean            =  -1.0932693302476E-03
(PID.TID 0000.0001) %MON dynstat_uvel_sd              =   1.7259466821416E-02
(PID.TID 0000.0001) %MON dynstat_uvel_del2            =   5.2433554341909E-03
(PID.TID 0000.0001) %MON dynstat_vvel_max             =   1.6519606459162E-01
(PID.TID 0000.0001) %MON dynstat_vvel_min             =  -1.3988687187416E-01
(PID.TID 0000.0001) %MON dynstat_vvel_mean            =  -1.2872395414083E-03
(PID.TID 0000.0001) %MON dynstat_vvel_sd              =   1.5040168095493E-02
(PID.TID 0000.0001) %MON dynstat_vvel_del2            =   4.8721957694073E-03
(PID.TID 0000.0001) %MON dynstat_wvel_max             =   3.2857881946782E-04
(PID.TID 0000.0001) %MON dynstat_wvel_min             =  -2.3824103823187E-04
(PID.TID 0000.0001) %MON dynstat_wvel_mean            =  -1.9467590660799E-22
(PID.TID 0000.0001) %MON dynstat_wvel_sd              =   2.7073377537207E-05
(PID.TID 0000.0001) %MON dynstat_wvel_del2            =   1.0937931544922E-05
(PID.TID 0000.0001) %MON dynstat_theta_max            =   2.9820115003242E+01
(PID.TID 0000.0001) %MON dynstat_theta_min            =  -1.9582218922618E+00
(PID.TID 0000.0001) %MON dynstat_theta_mean           =   3.5925228568691E+00
(PID.TID 0000.0001) %MON dynstat_theta_sd             =   4.3427160682492E+00
(PID.TID 0000.0001) %MON dynstat_theta_del2           =   1.3139062499045E-01
(PID.TID 0000.0001) %MON dynstat_salt_max             =   3.7388336077622E+01
(PID.TID 0000.0001) %MON dynstat_salt_min             =   2.9796932503681E+01
(PID.TID 0000.0001) %MON dynstat_salt_mean            =   3.4716196805572E+01
(PID.TID 0000.0001) %MON dynstat_salt_sd              =   2.9373628648357E-01
(PID.TID 0000.0001) %MON dynstat_salt_del2            =   2.4121039124068E-02
(PID.TID 0000.0001) %MON advcfl_uvel_max              =   3.3876593846070E-02
(PID.TID 0000.0001) %MON advcfl_vvel_max              =   1.6047472961902E-02
(PID.TID 0000.0001) %MON advcfl_wvel_max              =   2.0392115141370E-01
(PID.TID 0000.0001) %MON advcfl_W_hf_max              =   1.8493528597024E-01
(PID.TID 0000.0001) %MON pe_b_mean                    =   2.2001596235652E-04
(PID.TID 0000.0001) %MON ke_max                       =   2.0071273230692E-02
(PID.TID 0000.0001) %MON ke_mean                      =   2.3817656222668E-04
(PID.TID 0000.0001) %MON ke_vol                       =   1.3226782436723E+18
(PID.TID 0000.0001) %MON vort_r_min                   =  -1.0821419372909E-06
(PID.TID 0000.0001) %MON vort_r_max                   =   7.0037801303432E-07
(PID.TID 0000.0001) %MON vort_a_mean                  =  -2.5205768565212E-05
(PID.TID 0000.0001) %MON vort_a_sd                    =   7.3403175026447E-05
(PID.TID 0000.0001) %MON vort_p_mean                  =  -3.1758668513923E-05
(PID.TID 0000.0001) %MON vort_p_sd                    =   1.3126330682178E-04
(PID.TID 0000.0001) %MON surfExpan_theta_mean         =   9.9221382826518E-06
(PID.TID 0000.0001) %MON surfExpan_salt_mean          =  -5.5118721339187E-07
(PID.TID 0000.0001) // =======================================================
(PID.TID 0000.0001) // End MONITOR dynamic field statistics
(PID.TID 0000.0001) // =======================================================
time,SST,SSS,fu,fv,Q,E-P,i0,i1,a,b =   2.5056E+06  2.6296E-01  3.4578E+01 -2.5740E-02 -3.8767E-02  2.5397E+02  0.0000E+00     1     2  4.6667E-01  5.3333E-01
time,fu0,fu1,fu =   2.5056E+06 -3.5633E-02 -1.4435E-02 -2.5740E-02  4.6667E-01  5.3333E-01
 cg2d: Sum(rhs),rhsMax =   4.76285677564192E-14  1.01469451490319E+01
(PID.TID 0000.0001)                    cg2d_init_res =    4.43535513623079E-01
(PID.TID 0000.0001)                       cg2d_iters =    24
(PID.TID 0000.0001)                         cg2d_res =    8.69817085970388E-14
(PID.TID 0000.0001) // =======================================================
(PID.TID 0000.0001) // Begin MONITOR dynamic field statistics
(PID.TID 0000.0001) // =======================================================
(PID.TID 0000.0001) %MON time_tsnumber                =                    59
(PID.TID 0000.0001) %MON time_secondsf                =   2.5488000000000E+06
(PID.TID 0000.0001) %MON dynstat_eta_max              =   1.2028027891395E+00
(PID.TID 0000.0001) %MON dynstat_eta_min              =  -1.2910385320987E+00
(PID.TID 0000.0001) %MON dynstat_eta_mean             =  -1.5108760272333E-17
(PID.TID 0000.0001) %MON dynstat_eta_sd               =   4.1545533230592E-01
(PID.TID 0000.0001) %MON dynstat_eta_del2             =   1.9099405271267E-02
(PID.TID 0000.0001) %MON dynstat_uvel_max             =   1.8917861388501E-01
(PID.TID 0000.0001) %MON dynstat_uvel_min             =  -1.9263583579476E-01
(PID.TID 0000.0001) %MON dynstat_uvel_mean            =  -9.4853707873260E-04
(PID.TID 0000.0001) %MON dynstat_uvel_sd              =   1.7422469257254E-02
(PID.TID 0000.0001) %MON dynstat_uvel_del2            =   5.2225332784369E-03
(PID.TID 0000.0001) %MON dynstat_vvel_max             =   1.6547075880644E-01
(PID.TID 0000.0001) %MON dynstat_vvel_min             =  -1.4120126511933E-01
(PID.TID 0000.0001) %MON dynstat_vvel_mean            =  -1.4834801779436E-03
(PID.TID 0000.0001) %MON dynstat_vvel_sd              =   1.5089214354642E-02
(PID.TID 0000.0001) %MON dynstat_vvel_del2            =   4.8388805239171E-03
(PID.TID 0000.0001) %MON dynstat_wvel_max             =   3.3266515635110E-04
(PID.TID 0000.0001) %MON dynstat_wvel_min             =  -2.3517927952960E-04
(PID.TID 0000.0001) %MON dynstat_wvel_mean            =  -3.9771051566025E-22
(PID.TID 0000.0001) %MON dynstat_wvel_sd              =   2.6885799606613E-05
(PID.TID 0000.0001) %MON dynstat_wvel_del2            =   1.0816132389191E-05
(PID.TID 0000.0001) %MON dynstat_theta_max            =   2.9837197866186E+01
(PID.TID 0000.0001) %MON dynstat_theta_min            =  -1.9590794922154E+00
(PID.TID 0000.0001) %MON dynstat_theta_mean           =   3.5924529292396E+00
(PID.TID 0000.0001) %MON dynstat_theta_sd             =   4.3424734096443E+00
(PID.TID 0000.0001) %MON dynstat_theta_del2           =   1.3123282244888E-01
(PID.TID 0000.0001) %MON dynstat_salt_max             =   3.7388777420854E+01
(PID.TID 0000.0001) %MON dynstat_salt_min             =   2.9795918491107E+01
(PID.TID 0000.0001) %MON dynstat_salt_mean            =   3.4716200981659E+01
(PID.TID 0000.0001) %MON dynstat_salt_sd              =   2.9376992454338E-01
(PID.TID 0000.0001) %MON dynstat_salt_del2            =   2.4072224755224E-02
(PID.TID 0000.0001) %MON advcfl_uvel_max              =   3.4679217286851E-02
(PID.TID 0000.0001) %MON advcfl_vvel_max              =   1.6074157302090E-02
(PID.TID 0000.0001) %MON advcfl_wvel_max              =   2.0819874889168E-01
(PID.TID 0000.0001) %MON advcfl_W_hf_max              =   1.8883883762546E-01
(PID.TID 0000.0001) %MON pe_b_mean                    =   2.2086651319869E-04
(PID.TID 0000.0001) %MON ke_max                       =   2.0071554855233E-02
(PID.TID 0000.0001) %MON ke_mean                      =   2.4151818028516E-04
(PID.TID 0000.0001) %MON ke_vol                       =   1.3226782436723E+18
(PID.TID 0000.0001) %MON vort_r_min                   =  -1.0894746516128E-06
(PID.TID 0000.0001) %MON vort_r_max                   =   7.0474440561569E-07
(PID.TID 0000.0001) %MON vort_a_mean                  =  -2.5205768539509E-05
(PID.TID 0000.0001) %MON vort_a_sd                    =   7.3403201996826E-05
(PID.TID 0000.0001) %MON vort_p_mean                  =  -3.1758668481538E-05
(PID.TID 0000.0001) %MON vort_p_sd                    =   1.3126328614007E-04
(PID.TID 0000.0001) %MON surfExpan_theta_mean         =   1.0203940552162E-05
(PID.TID 0000.0001) %MON surfExpan_salt_mean          =  -4.4415032204647E-07
(PID.TID 0000.0001) // =======================================================
(PID.TID 0000.0001) // End MONITOR dynamic field statistics
(PID.TID 0000.0001) // =======================================================
time,SST,SSS,fu,fv,Q,E-P,i0,i1,a,b =   2.5488E+06  2.3812E-01  3.4573E+01 -2.5387E-02 -3.8106E-02  2.5355E+02  0.0000E+00     1     2  4.8333E-01  5.1667E-01
time,fu0,fu1,fu =   2.5488E+06 -3.5633E-02 -1.4435E-02 -2.5387E-02  4.8333E-01  5.1667E-01
 cg2d: Sum(rhs),rhsMax =  -3.01189628792997E-13  1.08659380191331E+01
(PID.TID 0000.0001)                    cg2d_init_res =    4.02742147104362E-01
(PID.TID 0000.0001)                       cg2d_iters =    24
(PID.TID 0000.0001)                         cg2d_res =    7.74131913593527E-14
(PID.TID 0000.0001) // =======================================================
(PID.TID 0000.0001) // Begin MONITOR dynamic field statistics
(PID.TID 0000.0001) // =======================================================
(PID.TID 0000.0001) %MON time_tsnumber                =                    60
(PID.TID 0000.0001) %MON time_secondsf                =   2.5920000000000E+06
(PID.TID 0000.0001) %MON dynstat_eta_max              =   1.2865750746034E+00
(PID.TID 0000.0001) %MON dynstat_eta_min              =  -1.2971154060098E+00
(PID.TID 0000.0001) %MON dynstat_eta_mean             =  -1.8038758239364E-16
(PID.TID 0000.0001) %MON dynstat_eta_sd               =   4.1643851761712E-01
(PID.TID 0000.0001) %MON dynstat_eta_del2             =   1.9151051937158E-02
(PID.TID 0000.0001) %MON dynstat_uvel_max             =   1.9558918702116E-01
(PID.TID 0000.0001) %MON dynstat_uvel_min             =  -1.9074768852048E-01
(PID.TID 0000.0001) %MON dynstat_uvel_mean            =  -8.0703882185300E-04
(PID.TID 0000.0001) %MON dynstat_uvel_sd              =   1.7604276873479E-02
(PID.TID 0000.0001) %MON dynstat_uvel_del2            =   5.2033865467355E-03
(PID.TID 0000.0001) %MON dynstat_vvel_max             =   1.6562663173224E-01
(PID.TID 0000.0001) %MON dynstat_vvel_min             =  -1.4311881625353E-01
(PID.TID 0000.0001) %MON dynstat_vvel_mean            =  -1.6551061396119E-03
(PID.TID 0000.0001) %MON dynstat_vvel_sd              =   1.5124824669891E-02
(PID.TID 0000.0001) %MON dynstat_vvel_del2            =   4.8074488384334E-03
(PID.TID 0000.0001) %MON dynstat_wvel_max             =   3.3651588277653E-04
(PID.TID 0000.0001) %MON dynstat_wvel_min             =  -2.3089019442103E-04
(PID.TID 0000.0001) %MON dynstat_wvel_mean            =   1.8265633743551E-22
(PID.TID 0000.0001) %MON dynstat_wvel_sd              =   2.6688451472164E-05
(PID.TID 0000.0001) %MON dynstat_wvel_del2            =   1.0695376969762E-05
(PID.TID 0000.0001) %MON dynstat_theta_max            =   2.9845363862343E+01
(PID.TID 0000.0001) %MON dynstat_theta_min            =  -1.9597731146465E+00
(PID.TID 0000.0001) %MON dynstat_theta_mean           =   3.5923783044343E+00
(PID.TID 0000.0001) %MON dynstat_theta_sd             =   4.3422380323569E+00
(PID.TID 0000.0001) %MON dynstat_theta_del2           =   1.3108893409860E-01
(PID.TID 0000.0001) %MON dynstat_salt_max             =   3.7389161918812E+01
(PID.TID 0000.0001) %MON dynstat_salt_min             =   2.9794838547983E+01
(PID.TID 0000.0001) %MON dynstat_salt_mean            =   3.4716203352558E+01
(PID.TID 0000.0001) %MON dynstat_salt_sd              =   2.9380432768109E-01
(PID.TID 0000.0001) %MON dynstat_salt_del2            =   2.4025430355447E-02
(PID.TID 0000.0001) %MON advcfl_uvel_max              =   3.5854369457365E-02
(PID.TID 0000.0001) %MON advcfl_vvel_max              =   1.6089299106881E-02
(PID.TID 0000.0001) %MON advcfl_wvel_max              =   2.0679506977961E-01
(PID.TID 0000.0001) %MON advcfl_W_hf_max              =   1.8749044150683E-01
(PID.TID 0000.0001) %MON pe_b_mean                    =   2.2191312227185E-04
(PID.TID 0000.0001) %MON ke_max                       =   2.0029966699570E-02
(PID.TID 0000.0001) %MON ke_mean                      =   2.4502332309308E-04
(PID.TID 0000.0001) %MON ke_vol                       =   1.3226782436723E+18
(PID.TID 0000.0001) %MON vort_r_min                   =  -1.0954531506748E-06
(PID.TID 0000.0001) %MON vort_r_max                   =   7.0781155196858E-07
(PID.TID 0000.0001) %MON vort_a_mean                  =  -2.5205768512053E-05
(PID.TID 0000.0001) %MON vort_a_sd                    =   7.3403228381649E-05
(PID.TID 0000.0001) %MON vort_p_mean                  =  -3.1758668446944E-05
(PID.TID 0000.0001) %MON vort_p_sd                    =   1.3126326003404E-04
(PID.TID 0000.0001) %MON surfExpan_theta_mean         =   1.0568700571787E-05
(PID.TID 0000.0001) %MON surfExpan_salt_mean          =  -3.0480157505327E-07
(PID.TID 0000.0001) // =======================================================
(PID.TID 0000.0001) // End MONITOR dynamic field statistics
(PID.TID 0000.0001) // =======================================================
(PID.TID 0000.0001)  MDS_WRITE_RL_VEC: irec =  00000011   00066240
(PID.TID 0000.0001)  MDS_WRITE_RL_VEC: irec =  00000011   00066240
(PID.TID 0000.0001)  MDS_WRITE_RL_VEC: irec =  00000011   00066240
(PID.TID 0000.0001)  MDS_WRITE_RL_VEC: irec =  00000011   00066240
(PID.TID 0000.0001)  MDS_WRITE_RL_VEC: irec =  00000011   00066240
(PID.TID 0000.0001)  MDS_WRITE_RL_VEC: irec =  00000011   00066240
(PID.TID 0000.0001)  MDS_WRITE_RL_VEC: irec =  00000011   00066240
(PID.TID 0000.0001)  MDS_WRITE_RL_VEC: irec =  00000011   00066240
(PID.TID 0000.0001)  MDS_WRITE_RL_VEC: irec =  00000011   00066240
(PID.TID 0000.0001)  MDS_WRITE_RL_VEC: irec =  00000011   00066240
(PID.TID 0000.0001)  MDS_WRITE_RL_VEC: irec =  00000011   00066240
(PID.TID 0000.0001)  MDS_WRITE_RL_VEC: irec =  00000011   00004416
(PID.TID 0000.0001)  MDS_WRITE_RL_VEC: irec =  00000011   00066240
(PID.TID 0000.0001)  MDS_WRITE_RL_VEC: irec =  00000011   00004416
(PID.TID 0000.0001)  MDS_WRITE_RL_VEC: irec =  00000011   00004416
(PID.TID 0000.0001)  MDS_WRITE_RL_VEC: irec =  00000011   00004416
(PID.TID 0000.0001)  MDS_WRITE_RL_VEC: irec =  00000011   00004416
(PID.TID 0000.0001)  MDS_WRITE_RL_VEC: irec =  00000011   00004416
(PID.TID 0000.0001)  MDS_WRITE_RL_VEC: irec =  00000011   00004416
(PID.TID 0000.0001)  MDS_WRITE_RL_VEC: irec =  00000011   00004416
(PID.TID 0000.0001)  MDS_WRITE_RL_VEC: irec =  00000011   00004416
(PID.TID 0000.0001)  MDS_WRITE_RL_VEC: irec =  00000011   00004416
(PID.TID 0000.0001)  MDS_WRITE_RL_VEC: irec =  00000011   00004416
(PID.TID 0000.0001)  MDS_WRITE_RL_VEC: irec =  00000011   00004416
(PID.TID 0000.0001)  MDS_WRITE_RL_VEC: irec =  00000011   00004416
(PID.TID 0000.0001)  MDS_WRITE_RL_VEC: irec =  00000011   00004416
(PID.TID 0000.0001)  MDS_WRITE_RL_VEC: irec =  00000011   00004416
(PID.TID 0000.0001)  MDS_WRITE_RL_VEC: irec =  00000011   00004416
(PID.TID 0000.0001)  MDS_WRITE_RL_VEC: irec =  00000011   00004416
(PID.TID 0000.0001)  MDS_WRITE_RL_VEC: irec =  00000011   00004416
(PID.TID 0000.0001)  MDS_WRITE_RL_VEC: irec =  00000011   00004416
time,SST,SSS,fu,fv,Q,E-P,i0,i1,a,b =   2.5920E+06  2.1328E-01  3.4568E+01 -2.5034E-02 -3.7446E-02  2.5313E+02  0.0000E+00     1     2  5.0000E-01  5.0000E-01
time,fu0,fu1,fu =   2.5920E+06 -3.5633E-02 -1.4435E-02 -2.5034E-02  5.0000E-01  5.0000E-01
 cg2d: Sum(rhs),rhsMax =   2.58265631103427E-14  1.14474198326271E+01
(PID.TID 0000.0001)                    cg2d_init_res =    3.69684313054615E-01
(PID.TID 0000.0001)                       cg2d_iters =    24
(PID.TID 0000.0001)                         cg2d_res =    6.76381600899393E-14
(PID.TID 0000.0001) // =======================================================
(PID.TID 0000.0001) // Begin MONITOR dynamic field statistics
(PID.TID 0000.0001) // =======================================================
(PID.TID 0000.0001) %MON time_tsnumber                =                    61
(PID.TID 0000.0001) %MON time_secondsf                =   2.6352000000000E+06
(PID.TID 0000.0001) %MON dynstat_eta_max              =   1.3543459118801E+00
(PID.TID 0000.0001) %MON dynstat_eta_min              =  -1.2975219156162E+00
(PID.TID 0000.0001) %MON dynstat_eta_mean             =  -2.1892741528007E-17
(PID.TID 0000.0001) %MON dynstat_eta_sd               =   4.1757656577568E-01
(PID.TID 0000.0001) %MON dynstat_eta_del2             =   1.9262084236459E-02
(PID.TID 0000.0001) %MON dynstat_uvel_max             =   2.0049265223062E-01
(PID.TID 0000.0001) %MON dynstat_uvel_min             =  -1.8867209879591E-01
(PID.TID 0000.0001) %MON dynstat_uvel_mean            =  -6.6993434205160E-04
(PID.TID 0000.0001) %MON dynstat_uvel_sd              =   1.7800912821099E-02
(PID.TID 0000.0001) %MON dynstat_uvel_del2            =   5.1856477321006E-03
(PID.TID 0000.0001) %MON dynstat_vvel_max             =   1.6569913063347E-01
(PID.TID 0000.0001) %MON dynstat_vvel_min             =  -1.4347831007285E-01
(PID.TID 0000.0001) %MON dynstat_vvel_mean            =  -1.8015463316939E-03
(PID.TID 0000.0001) %MON dynstat_vvel_sd              =   1.5147957727366E-02
(PID.TID 0000.0001) %MON dynstat_vvel_del2            =   4.7792565578044E-03
(PID.TID 0000.0001) %MON dynstat_wvel_max             =   3.4015172594544E-04
(PID.TID 0000.0001) %MON dynstat_wvel_min             =  -2.2536327565894E-04
(PID.TID 0000.0001) %MON dynstat_wvel_mean            =  -4.0285342623733E-22
(PID.TID 0000.0001) %MON dynstat_wvel_sd              =   2.6482834403303E-05
(PID.TID 0000.0001) %MON dynstat_wvel_del2            =   1.0579296835027E-05
(PID.TID 0000.0001) %MON dynstat_theta_max            =   2.9844206172810E+01
(PID.TID 0000.0001) %MON dynstat_theta_min            =  -1.9602915690904E+00
(PID.TID 0000.0001) %MON dynstat_theta_mean           =   3.5922982926707E+00
(PID.TID 0000.0001) %MON dynstat_theta_sd             =   4.3420041924692E+00
(PID.TID 0000.0001) %MON dynstat_theta_del2           =   1.3097679529217E-01
(PID.TID 0000.0001) %MON dynstat_salt_max             =   3.7389501993017E+01
(PID.TID 0000.0001) %MON dynstat_salt_min             =   2.9793688187515E+01
(PID.TID 0000.0001) %MON dynstat_salt_mean            =   3.4716203697708E+01
(PID.TID 0000.0001) %MON dynstat_salt_sd              =   2.9383823384840E-01
(PID.TID 0000.0001) %MON dynstat_salt_del2            =   2.3982227789720E-02
(PID.TID 0000.0001) %MON advcfl_uvel_max              =   3.6753246618822E-02
(PID.TID 0000.0001) %MON advcfl_vvel_max              =   1.6096341793763E-02
(PID.TID 0000.0001) %MON advcfl_wvel_max              =   1.9970634177615E-01
(PID.TID 0000.0001) %MON advcfl_W_hf_max              =   1.8088759960459E-01
(PID.TID 0000.0001) %MON pe_b_mean                    =   2.2312767324307E-04
(PID.TID 0000.0001) %MON ke_max                       =   1.9947199899689E-02
(PID.TID 0000.0001) %MON ke_mean                      =   2.4863588440115E-04
(PID.TID 0000.0001) %MON ke_vol                       =   1.3226782436723E+18
(PID.TID 0000.0001) %MON vort_r_min                   =  -1.1000245852798E-06
(PID.TID 0000.0001) %MON vort_r_max                   =   7.0957407781620E-07
(PID.TID 0000.0001) %MON vort_a_mean                  =  -2.5205768482639E-05
(PID.TID 0000.0001) %MON vort_a_sd                    =   7.3403253933725E-05
(PID.TID 0000.0001) %MON vort_p_mean                  =  -3.1758668409884E-05
(PID.TID 0000.0001) %MON vort_p_sd                    =   1.3126322922779E-04
(PID.TID 0000.0001) %MON surfExpan_theta_mean         =   1.1002938739570E-05
(PID.TID 0000.0001) %MON surfExpan_salt_mean          =  -1.4113679995345E-07
(PID.TID 0000.0001) // =======================================================
(PID.TID 0000.0001) // End MONITOR dynamic field statistics
(PID.TID 0000.0001) // =======================================================
time,SST,SSS,fu,fv,Q,E-P,i0,i1,a,b =   2.6352E+06  1.8845E-01  3.4563E+01 -2.4681E-02 -3.6786E-02  2.5270E+02  0.0000E+00     1     2  5.1667E-01  4.8333E-01
time,fu0,fu1,fu =   2.6352E+06 -3.5633E-02 -1.4435E-02 -2.4681E-02  5.1667E-01  4.8333E-01
 cg2d: Sum(rhs),rhsMax =  -3.47138984224671E-13  1.18834278549886E+01
(PID.TID 0000.0001)                    cg2d_init_res =    3.43510376557438E-01
(PID.TID 0000.0001)                       cg2d_iters =    24
(PID.TID 0000.0001)                         cg2d_res =    4.72055607018242E-14
(PID.TID 0000.0001) // =======================================================
(PID.TID 0000.0001) // Begin MONITOR dynamic field statistics
(PID.TID 0000.0001) // =======================================================
(PID.TID 0000.0001) %MON time_tsnumber                =                    62
(PID.TID 0000.0001) %MON time_secondsf                =   2.6784000000000E+06
(PID.TID 0000.0001) %MON dynstat_eta_max              =   1.4051854122034E+00
(PID.TID 0000.0001) %MON dynstat_eta_min              =  -1.2927187617581E+00
(PID.TID 0000.0001) %MON dynstat_eta_mean             =  -6.3467620948341E-17
(PID.TID 0000.0001) %MON dynstat_eta_sd               =   4.1883132983129E-01
(PID.TID 0000.0001) %MON dynstat_eta_del2             =   1.9437896306529E-02
(PID.TID 0000.0001) %MON dynstat_uvel_max             =   2.0381175481836E-01
(PID.TID 0000.0001) %MON dynstat_uvel_min             =  -1.8641870018388E-01
(PID.TID 0000.0001) %MON dynstat_uvel_mean            =  -5.3816282503791E-04
(PID.TID 0000.0001) %MON dynstat_uvel_sd              =   1.8007384327601E-02
(PID.TID 0000.0001) %MON dynstat_uvel_del2            =   5.1694700820148E-03
(PID.TID 0000.0001) %MON dynstat_vvel_max             =   1.6572692466442E-01
(PID.TID 0000.0001) %MON dynstat_vvel_min             =  -1.4410868642868E-01
(PID.TID 0000.0001) %MON dynstat_vvel_mean            =  -1.9226356274279E-03
(PID.TID 0000.0001) %MON dynstat_vvel_sd              =   1.5161193047935E-02
(PID.TID 0000.0001) %MON dynstat_vvel_del2            =   4.7534416332823E-03
(PID.TID 0000.0001) %MON dynstat_wvel_max             =   3.4359250276372E-04
(PID.TID 0000.0001) %MON dynstat_wvel_min             =  -2.1862339214714E-04
(PID.TID 0000.0001) %MON dynstat_wvel_mean            =  -1.6921579621128E-22
(PID.TID 0000.0001) %MON dynstat_wvel_sd              =   2.6272784825427E-05
(PID.TID 0000.0001) %MON dynstat_wvel_del2            =   1.0466917535239E-05
(PID.TID 0000.0001) %MON dynstat_theta_max            =   2.9832599798913E+01
(PID.TID 0000.0001) %MON dynstat_theta_min            =  -1.9606228513241E+00
(PID.TID 0000.0001) %MON dynstat_theta_mean           =   3.5922123868214E+00
(PID.TID 0000.0001) %MON dynstat_theta_sd             =   4.3417674722016E+00
(PID.TID 0000.0001) %MON dynstat_theta_del2           =   1.3084360533526E-01
(PID.TID 0000.0001) %MON dynstat_salt_max             =   3.7389810213072E+01
(PID.TID 0000.0001) %MON dynstat_salt_min             =   2.9792463772611E+01
(PID.TID 0000.0001) %MON dynstat_salt_mean            =   3.4716201894193E+01
(PID.TID 0000.0001) %MON dynstat_salt_sd              =   2.9387057901182E-01
(PID.TID 0000.0001) %MON dynstat_salt_del2            =   2.3938739211525E-02
(PID.TID 0000.0001) %MON advcfl_uvel_max              =   3.7361686851436E-02
(PID.TID 0000.0001) %MON advcfl_vvel_max              =   1.6099041760989E-02
(PID.TID 0000.0001) %MON advcfl_wvel_max              =   1.8712295958010E-01
(PID.TID 0000.0001) %MON advcfl_W_hf_max              =   1.6920743807015E-01
(PID.TID 0000.0001) %MON pe_b_mean                    =   2.2447062803528E-04
(PID.TID 0000.0001) %MON ke_max                       =   1.9824128322701E-02
(PID.TID 0000.0001) %MON ke_mean                      =   2.5230504053319E-04
(PID.TID 0000.0001) %MON ke_vol                       =   1.3226782436723E+18
(PID.TID 0000.0001) %MON vort_r_min                   =  -1.1031313152582E-06
(PID.TID 0000.0001) %MON vort_r_max                   =   7.1003038390440E-07
(PID.TID 0000.0001) %MON vort_a_mean                  =  -2.5205768451165E-05
(PID.TID 0000.0001) %MON vort_a_sd                    =   7.3403278444671E-05
(PID.TID 0000.0001) %MON vort_p_mean                  =  -3.1758668370227E-05
(PID.TID 0000.0001) %MON vort_p_sd                    =   1.3126319456697E-04
(PID.TID 0000.0001) %MON surfExpan_theta_mean         =   1.1487572441047E-05
(PID.TID 0000.0001) %MON surfExpan_salt_mean          =   3.8242712235862E-08
(PID.TID 0000.0001) // =======================================================
(PID.TID 0000.0001) // End MONITOR dynamic field statistics
(PID.TID 0000.0001) // =======================================================
time,SST,SSS,fu,fv,Q,E-P,i0,i1,a,b =   2.6784E+06  1.6361E-01  3.4558E+01 -2.4327E-02 -3.6125E-02  2.5228E+02  0.0000E+00     1     2  5.3333E-01  4.6667E-01
time,fu0,fu1,fu =   2.6784E+06 -3.5633E-02 -1.4435E-02 -2.4327E-02  5.3333E-01  4.6667E-01
 cg2d: Sum(rhs),rhsMax =   6.99579283391927E-14  1.21703387576391E+01
(PID.TID 0000.0001)                    cg2d_init_res =    3.24125026616322E-01
(PID.TID 0000.0001)                       cg2d_iters =    24
(PID.TID 0000.0001)                         cg2d_res =    4.58168230976506E-14
(PID.TID 0000.0001) // =======================================================
(PID.TID 0000.0001) // Begin MONITOR dynamic field statistics
(PID.TID 0000.0001) // =======================================================
(PID.TID 0000.0001) %MON time_tsnumber                =                    63
(PID.TID 0000.0001) %MON time_secondsf                =   2.7216000000000E+06
(PID.TID 0000.0001) %MON dynstat_eta_max              =   1.4386673704525E+00
(PID.TID 0000.0001) %MON dynstat_eta_min              =  -1.2832394937798E+00
(PID.TID 0000.0001) %MON dynstat_eta_mean             =  -8.0841863190589E-17
(PID.TID 0000.0001) %MON dynstat_eta_sd               =   4.2016059672799E-01
(PID.TID 0000.0001) %MON dynstat_eta_del2             =   1.9618481894039E-02
(PID.TID 0000.0001) %MON dynstat_uvel_max             =   2.0549297831915E-01
(PID.TID 0000.0001) %MON dynstat_uvel_min             =  -1.8399665125640E-01
(PID.TID 0000.0001) %MON dynstat_uvel_mean            =  -4.1244610784993E-04
(PID.TID 0000.0001) %MON dynstat_uvel_sd              =   1.8217927112769E-02
(PID.TID 0000.0001) %MON dynstat_uvel_del2            =   5.1547419182929E-03
(PID.TID 0000.0001) %MON dynstat_vvel_max             =   1.6652454211376E-01
(PID.TID 0000.0001) %MON dynstat_vvel_min             =  -1.4475242727907E-01
(PID.TID 0000.0001) %MON dynstat_vvel_mean            =  -2.0185943713161E-03
(PID.TID 0000.0001) %MON dynstat_vvel_sd              =   1.5168183705194E-02
(PID.TID 0000.0001) %MON dynstat_vvel_del2            =   4.7308181228767E-03
(PID.TID 0000.0001) %MON dynstat_wvel_max             =   3.4685628013876E-04
(PID.TID 0000.0001) %MON dynstat_wvel_min             =  -2.1072969499366E-04
(PID.TID 0000.0001) %MON dynstat_wvel_mean            =  -6.0139161162769E-22
(PID.TID 0000.0001) %MON dynstat_wvel_sd              =   2.6063619256663E-05
(PID.TID 0000.0001) %MON dynstat_wvel_del2            =   1.0359407669383E-05
(PID.TID 0000.0001) %MON dynstat_theta_max            =   2.9810616036498E+01
(PID.TID 0000.0001) %MON dynstat_theta_min            =  -1.9607548179333E+00
(PID.TID 0000.0001) %MON dynstat_theta_mean           =   3.5921203781261E+00
(PID.TID 0000.0001) %MON dynstat_theta_sd             =   4.3415234988882E+00
(PID.TID 0000.0001) %MON dynstat_theta_del2           =   1.3070865703474E-01
(PID.TID 0000.0001) %MON dynstat_salt_max             =   3.7390098572091E+01
(PID.TID 0000.0001) %MON dynstat_salt_min             =   2.9791162801675E+01
(PID.TID 0000.0001) %MON dynstat_salt_mean            =   3.4716197917082E+01
(PID.TID 0000.0001) %MON dynstat_salt_sd              =   2.9390036960998E-01
(PID.TID 0000.0001) %MON dynstat_salt_del2            =   2.3899618767477E-02
(PID.TID 0000.0001) %MON advcfl_uvel_max              =   3.7669879801443E-02
(PID.TID 0000.0001) %MON advcfl_vvel_max              =   1.6176523900070E-02
(PID.TID 0000.0001) %MON advcfl_wvel_max              =   1.6942748576455E-01
(PID.TID 0000.0001) %MON advcfl_W_hf_max              =   1.5280480409304E-01
(PID.TID 0000.0001) %MON pe_b_mean                    =   2.2589771740578E-04
(PID.TID 0000.0001) %MON ke_max                       =   1.9661756574810E-02
(PID.TID 0000.0001) %MON ke_mean                      =   2.5598077261991E-04
(PID.TID 0000.0001) %MON ke_vol                       =   1.3226782436723E+18
(PID.TID 0000.0001) %MON vort_r_min                   =  -1.1047120436547E-06
(PID.TID 0000.0001) %MON vort_r_max                   =   7.0918213685807E-07
(PID.TID 0000.0001) %MON vort_a_mean                  =  -2.5205768417634E-05
(PID.TID 0000.0001) %MON vort_a_sd                    =   7.3403301747284E-05
(PID.TID 0000.0001) %MON vort_p_mean                  =  -3.1758668327978E-05
(PID.TID 0000.0001) %MON vort_p_sd                    =   1.3126315695890E-04
(PID.TID 0000.0001) %MON surfExpan_theta_mean         =   1.2005677886999E-05
(PID.TID 0000.0001) %MON surfExpan_salt_mean          =   2.2564088191386E-07
(PID.TID 0000.0001) // =======================================================
(PID.TID 0000.0001) // End MONITOR dynamic field statistics
(PID.TID 0000.0001) // =======================================================
time,SST,SSS,fu,fv,Q,E-P,i0,i1,a,b =   2.7216E+06  1.3877E-01  3.4553E+01 -2.3974E-02 -3.5465E-02  2.5186E+02  0.0000E+00     1     2  5.5000E-01  4.5000E-01
time,fu0,fu1,fu =   2.7216E+06 -3.5633E-02 -1.4435E-02 -2.3974E-02  5.5000E-01  4.5000E-01
 cg2d: Sum(rhs),rhsMax =  -1.61079483085302E-13  1.23086917903239E+01
(PID.TID 0000.0001)                    cg2d_init_res =    3.11872196115300E-01
(PID.TID 0000.0001)                       cg2d_iters =    24
(PID.TID 0000.0001)                         cg2d_res =    5.25837189074080E-14
(PID.TID 0000.0001) // =======================================================
(PID.TID 0000.0001) // Begin MONITOR dynamic field statistics
(PID.TID 0000.0001) // =======================================================
(PID.TID 0000.0001) %MON time_tsnumber                =                    64
(PID.TID 0000.0001) %MON time_secondsf                =   2.7648000000000E+06
(PID.TID 0000.0001) %MON dynstat_eta_max              =   1.4548491785566E+00
(PID.TID 0000.0001) %MON dynstat_eta_min              =  -1.3064007618201E+00
(PID.TID 0000.0001) %MON dynstat_eta_mean             =  -2.8524539998035E-16
(PID.TID 0000.0001) %MON dynstat_eta_sd               =   4.2152467011791E-01
(PID.TID 0000.0001) %MON dynstat_eta_del2             =   1.9762611156015E-02
(PID.TID 0000.0001) %MON dynstat_uvel_max             =   2.0550748309562E-01
(PID.TID 0000.0001) %MON dynstat_uvel_min             =  -1.8141444137125E-01
(PID.TID 0000.0001) %MON dynstat_uvel_mean            =  -2.9328008408580E-04
(PID.TID 0000.0001) %MON dynstat_uvel_sd              =   1.8426291862324E-02
(PID.TID 0000.0001) %MON dynstat_uvel_del2            =   5.1418337992611E-03
(PID.TID 0000.0001) %MON dynstat_vvel_max             =   1.6988862544530E-01
(PID.TID 0000.0001) %MON dynstat_vvel_min             =  -1.4524916228607E-01
(PID.TID 0000.0001) %MON dynstat_vvel_mean            =  -2.0900160136268E-03
(PID.TID 0000.0001) %MON dynstat_vvel_sd              =   1.5173031728226E-02
(PID.TID 0000.0001) %MON dynstat_vvel_del2            =   4.7108664805070E-03
(PID.TID 0000.0001) %MON dynstat_wvel_max             =   3.4995850880721E-04
(PID.TID 0000.0001) %MON dynstat_wvel_min             =  -2.0727822749022E-04
(PID.TID 0000.0001) %MON dynstat_wvel_mean            =  -2.2458869195810E-23
(PID.TID 0000.0001) %MON dynstat_wvel_sd              =   2.5861024162759E-05
(PID.TID 0000.0001) %MON dynstat_wvel_del2            =   1.0258136114968E-05
(PID.TID 0000.0001) %MON dynstat_theta_max            =   2.9777679199263E+01
(PID.TID 0000.0001) %MON dynstat_theta_min            =  -1.9606758403210E+00
(PID.TID 0000.0001) %MON dynstat_theta_mean           =   3.5920222084227E+00
(PID.TID 0000.0001) %MON dynstat_theta_sd             =   4.3412684677198E+00
(PID.TID 0000.0001) %MON dynstat_theta_del2           =   1.3056906229088E-01
(PID.TID 0000.0001) %MON dynstat_salt_max             =   3.7390377814655E+01
(PID.TID 0000.0001) %MON dynstat_salt_min             =   2.9789784279262E+01
(PID.TID 0000.0001) %MON dynstat_salt_mean            =   3.4716191817616E+01
(PID.TID 0000.0001) %MON dynstat_salt_sd              =   2.9392670748251E-01
(PID.TID 0000.0001) %MON dynstat_salt_del2            =   2.3861568797882E-02
(PID.TID 0000.0001) %MON advcfl_uvel_max              =   3.7672538739918E-02
(PID.TID 0000.0001) %MON advcfl_vvel_max              =   1.6503317619024E-02
(PID.TID 0000.0001) %MON advcfl_wvel_max              =   1.4718383733549E-01
(PID.TID 0000.0001) %MON advcfl_W_hf_max              =   1.3220220983099E-01
(PID.TID 0000.0001) %MON pe_b_mean                    =   2.2736687594000E-04
(PID.TID 0000.0001) %MON ke_max                       =   1.9461174774019E-02
(PID.TID 0000.0001) %MON ke_mean                      =   2.5960920363254E-04
(PID.TID 0000.0001) %MON ke_vol                       =   1.3226782436723E+18
(PID.TID 0000.0001) %MON vort_r_min                   =  -1.1047051683589E-06
(PID.TID 0000.0001) %MON vort_r_max                   =   7.0703376407369E-07
(PID.TID 0000.0001) %MON vort_a_mean                  =  -2.5205768382151E-05
(PID.TID 0000.0001) %MON vort_a_sd                    =   7.3403323718863E-05
(PID.TID 0000.0001) %MON vort_p_mean                  =  -3.1758668283270E-05
(PID.TID 0000.0001) %MON vort_p_sd                    =   1.3126311738982E-04
(PID.TID 0000.0001) %MON surfExpan_theta_mean         =   1.2534688328531E-05
(PID.TID 0000.0001) %MON surfExpan_salt_mean          =   4.1247782920309E-07
(PID.TID 0000.0001) // =======================================================
(PID.TID 0000.0001) // End MONITOR dynamic field statistics
(PID.TID 0000.0001) // =======================================================
time,SST,SSS,fu,fv,Q,E-P,i0,i1,a,b =   2.7648E+06  1.1393E-01  3.4548E+01 -2.3621E-02 -3.4805E-02  2.5144E+02  0.0000E+00     1     2  5.6667E-01  4.3333E-01
time,fu0,fu1,fu =   2.7648E+06 -3.5633E-02 -1.4435E-02 -2.3621E-02  5.6667E-01  4.3333E-01
 cg2d: Sum(rhs),rhsMax =  -1.73056013963446E-13  1.23029134190876E+01
(PID.TID 0000.0001)                    cg2d_init_res =    3.07221079175790E-01
(PID.TID 0000.0001)                       cg2d_iters =    24
(PID.TID 0000.0001)                         cg2d_res =    4.72426814293108E-14
(PID.TID 0000.0001) // =======================================================
(PID.TID 0000.0001) // Begin MONITOR dynamic field statistics
(PID.TID 0000.0001) // =======================================================
(PID.TID 0000.0001) %MON time_tsnumber                =                    65
(PID.TID 0000.0001) %MON time_secondsf                =   2.8080000000000E+06
(PID.TID 0000.0001) %MON dynstat_eta_max              =   1.4542402307192E+00
(PID.TID 0000.0001) %MON dynstat_eta_min              =  -1.3379240490157E+00
(PID.TID 0000.0001) %MON dynstat_eta_mean             =   1.4233418885083E-17
(PID.TID 0000.0001) %MON dynstat_eta_sd               =   4.2289204570744E-01
(PID.TID 0000.0001) %MON dynstat_eta_del2             =   1.9834666054832E-02
(PID.TID 0000.0001) %MON dynstat_uvel_max             =   2.0385089094495E-01
(PID.TID 0000.0001) %MON dynstat_uvel_min             =  -1.7867979407416E-01
(PID.TID 0000.0001) %MON dynstat_uvel_mean            =  -1.8095090849093E-04
(PID.TID 0000.0001) %MON dynstat_uvel_sd              =   1.8626068321771E-02
(PID.TID 0000.0001) %MON dynstat_uvel_del2            =   5.1298555564902E-03
(PID.TID 0000.0001) %MON dynstat_vvel_max             =   1.7292136098122E-01
(PID.TID 0000.0001) %MON dynstat_vvel_min             =  -1.4561088309286E-01
(PID.TID 0000.0001) %MON dynstat_vvel_mean            =  -2.1378379767974E-03
(PID.TID 0000.0001) %MON dynstat_vvel_sd              =   1.5179654409946E-02
(PID.TID 0000.0001) %MON dynstat_vvel_del2            =   4.6932733654404E-03
(PID.TID 0000.0001) %MON dynstat_wvel_max             =   3.5291165816488E-04
(PID.TID 0000.0001) %MON dynstat_wvel_min             =  -2.1148387504980E-04
(PID.TID 0000.0001) %MON dynstat_wvel_mean            =  -4.9700534274573E-23
(PID.TID 0000.0001) %MON dynstat_wvel_sd              =   2.5669946618725E-05
(PID.TID 0000.0001) %MON dynstat_wvel_del2            =   1.0162317604958E-05
(PID.TID 0000.0001) %MON dynstat_theta_max            =   2.9733636831453E+01
(PID.TID 0000.0001) %MON dynstat_theta_min            =  -1.9603754023161E+00
(PID.TID 0000.0001) %MON dynstat_theta_mean           =   3.5919180853697E+00
(PID.TID 0000.0001) %MON dynstat_theta_sd             =   4.3409996348835E+00
(PID.TID 0000.0001) %MON dynstat_theta_del2           =   1.3041218996124E-01
(PID.TID 0000.0001) %MON dynstat_salt_max             =   3.7390656914136E+01
(PID.TID 0000.0001) %MON dynstat_salt_min             =   2.9788328476636E+01
(PID.TID 0000.0001) %MON dynstat_salt_mean            =   3.4716183734440E+01
(PID.TID 0000.0001) %MON dynstat_salt_sd              =   2.9394886472747E-01
(PID.TID 0000.0001) %MON dynstat_salt_del2            =   2.3822184274229E-02
(PID.TID 0000.0001) %MON advcfl_uvel_max              =   3.7368861078002E-02
(PID.TID 0000.0001) %MON advcfl_vvel_max              =   1.6797923556723E-02
(PID.TID 0000.0001) %MON advcfl_wvel_max              =   1.2111797807674E-01
(PID.TID 0000.0001) %MON advcfl_W_hf_max              =   1.0807192701072E-01
(PID.TID 0000.0001) %MON pe_b_mean                    =   2.2884437034390E-04
(PID.TID 0000.0001) %MON ke_max                       =   1.9223527085903E-02
(PID.TID 0000.0001) %MON ke_mean                      =   2.6312894325623E-04
(PID.TID 0000.0001) %MON ke_vol                       =   1.3226782436723E+18
(PID.TID 0000.0001) %MON vort_r_min                   =  -1.1030553871990E-06
(PID.TID 0000.0001) %MON vort_r_max                   =   7.0359206028241E-07
(PID.TID 0000.0001) %MON vort_a_mean                  =  -2.5205768344929E-05
(PID.TID 0000.0001) %MON vort_a_sd                    =   7.3403344280126E-05
(PID.TID 0000.0001) %MON vort_p_mean                  =  -3.1758668236372E-05
(PID.TID 0000.0001) %MON vort_p_sd                    =   1.3126307689387E-04
(PID.TID 0000.0001) %MON surfExpan_theta_mean         =   1.3058321984469E-05
(PID.TID 0000.0001) %MON surfExpan_salt_mean          =   5.9275484190558E-07
(PID.TID 0000.0001) // =======================================================
(PID.TID 0000.0001) // End MONITOR dynamic field statistics
(PID.TID 0000.0001) // =======================================================
time,SST,SSS,fu,fv,Q,E-P,i0,i1,a,b =   2.8080E+06  8.9094E-02  3.4543E+01 -2.3267E-02 -3.4144E-02  2.5102E+02  0.0000E+00     1     2  5.8333E-01  4.1667E-01
time,fu0,fu1,fu =   2.8080E+06 -3.5633E-02 -1.4435E-02 -2.3267E-02  5.8333E-01  4.1667E-01
 cg2d: Sum(rhs),rhsMax =   4.42951231249822E-13  1.21609675813576E+01
(PID.TID 0000.0001)                    cg2d_init_res =    3.10461825755496E-01
(PID.TID 0000.0001)                       cg2d_iters =    24
(PID.TID 0000.0001)                         cg2d_res =    3.88300477230873E-14
(PID.TID 0000.0001) // =======================================================
(PID.TID 0000.0001) // Begin MONITOR dynamic field statistics
(PID.TID 0000.0001) // =======================================================
(PID.TID 0000.0001) %MON time_tsnumber                =                    66
(PID.TID 0000.0001) %MON time_secondsf                =   2.8512000000000E+06
(PID.TID 0000.0001) %MON dynstat_eta_max              =   1.4377616139728E+00
(PID.TID 0000.0001) %MON dynstat_eta_min              =  -1.3655109753296E+00
(PID.TID 0000.0001) %MON dynstat_eta_mean             =  -8.2413459840442E-17
(PID.TID 0000.0001) %MON dynstat_eta_sd               =   4.2424335068731E-01
(PID.TID 0000.0001) %MON dynstat_eta_del2             =   1.9832235011589E-02
(PID.TID 0000.0001) %MON dynstat_uvel_max             =   2.0054285038667E-01
(PID.TID 0000.0001) %MON dynstat_uvel_min             =  -1.7579968302963E-01
(PID.TID 0000.0001) %MON dynstat_uvel_mean            =  -7.5553350523900E-05
(PID.TID 0000.0001) %MON dynstat_uvel_sd              =   1.8811005963923E-02
(PID.TID 0000.0001) %MON dynstat_uvel_del2            =   5.1193000762109E-03
(PID.TID 0000.0001) %MON dynstat_vvel_max             =   1.7561326411686E-01
(PID.TID 0000.0001) %MON dynstat_vvel_min             =  -1.4693264556637E-01
(PID.TID 0000.0001) %MON dynstat_vvel_mean            =  -2.1633088451203E-03
(PID.TID 0000.0001) %MON dynstat_vvel_sd              =   1.5191227234715E-02
(PID.TID 0000.0001) %MON dynstat_vvel_del2            =   4.6775968431057E-03
(PID.TID 0000.0001) %MON dynstat_wvel_max             =   3.5572506289155E-04
(PID.TID 0000.0001) %MON dynstat_wvel_min             =  -2.1749036748765E-04
(PID.TID 0000.0001) %MON dynstat_wvel_mean            =   2.6798099128193E-22
(PID.TID 0000.0001) %MON dynstat_wvel_sd              =   2.5493668693147E-05
(PID.TID 0000.0001) %MON dynstat_wvel_del2            =   1.0076282602027E-05
(PID.TID 0000.0001) %MON dynstat_theta_max            =   2.9699318241629E+01
(PID.TID 0000.0001) %MON dynstat_theta_min            =  -1.9598446651295E+00
(PID.TID 0000.0001) %MON dynstat_theta_mean           =   3.5918083654277E+00
(PID.TID 0000.0001) %MON dynstat_theta_sd             =   4.3407156208663E+00
(PID.TID 0000.0001) %MON dynstat_theta_del2           =   1.3024431246988E-01
(PID.TID 0000.0001) %MON dynstat_salt_max             =   3.7390942590889E+01
(PID.TID 0000.0001) %MON dynstat_salt_min             =   2.9786797146076E+01
(PID.TID 0000.0001) %MON dynstat_salt_mean            =   3.4716173851526E+01
(PID.TID 0000.0001) %MON dynstat_salt_sd              =   2.9396613836792E-01
(PID.TID 0000.0001) %MON dynstat_salt_del2            =   2.3785220516363E-02
(PID.TID 0000.0001) %MON advcfl_uvel_max              =   3.6762448677793E-02
(PID.TID 0000.0001) %MON advcfl_vvel_max              =   1.7059420359883E-02
(PID.TID 0000.0001) %MON advcfl_wvel_max              =   1.0320075800814E-01
(PID.TID 0000.0001) %MON advcfl_W_hf_max              =   1.0377036606579E-01
(PID.TID 0000.0001) %MON pe_b_mean                    =   2.3030920095141E-04
(PID.TID 0000.0001) %MON ke_max                       =   1.8949991090680E-02
(PID.TID 0000.0001) %MON ke_mean                      =   2.6646909966352E-04
(PID.TID 0000.0001) %MON ke_vol                       =   1.3226782436723E+18
(PID.TID 0000.0001) %MON vort_r_min                   =  -1.0997215230528E-06
(PID.TID 0000.0001) %MON vort_r_max                   =   6.9886584967928E-07
(PID.TID 0000.0001) %MON vort_a_mean                  =  -2.5205768306277E-05
(PID.TID 0000.0001) %MON vort_a_sd                    =   7.3403363392907E-05
(PID.TID 0000.0001) %MON vort_p_mean                  =  -3.1758668187671E-05
(PID.TID 0000.0001) %MON vort_p_sd                    =   1.3126303649818E-04
(PID.TID 0000.0001) %MON surfExpan_theta_mean         =   1.3556356227202E-05
(PID.TID 0000.0001) %MON surfExpan_salt_mean          =   7.5965587857896E-07
(PID.TID 0000.0001) // =======================================================
(PID.TID 0000.0001) // End MONITOR dynamic field statistics
(PID.TID 0000.0001) // =======================================================
(PID.TID 0000.0001)  MDS_WRITE_RL_VEC: irec =  00000012   00066240
(PID.TID 0000.0001)  MDS_WRITE_RL_VEC: irec =  00000012   00066240
(PID.TID 0000.0001)  MDS_WRITE_RL_VEC: irec =  00000012   00066240
(PID.TID 0000.0001)  MDS_WRITE_RL_VEC: irec =  00000012   00066240
(PID.TID 0000.0001)  MDS_WRITE_RL_VEC: irec =  00000012   00066240
(PID.TID 0000.0001)  MDS_WRITE_RL_VEC: irec =  00000012   00066240
(PID.TID 0000.0001)  MDS_WRITE_RL_VEC: irec =  00000012   00066240
(PID.TID 0000.0001)  MDS_WRITE_RL_VEC: irec =  00000012   00066240
(PID.TID 0000.0001)  MDS_WRITE_RL_VEC: irec =  00000012   00066240
(PID.TID 0000.0001)  MDS_WRITE_RL_VEC: irec =  00000012   00066240
(PID.TID 0000.0001)  MDS_WRITE_RL_VEC: irec =  00000012   00066240
(PID.TID 0000.0001)  MDS_WRITE_RL_VEC: irec =  00000012   00004416
(PID.TID 0000.0001)  MDS_WRITE_RL_VEC: irec =  00000012   00066240
(PID.TID 0000.0001)  MDS_WRITE_RL_VEC: irec =  00000012   00004416
(PID.TID 0000.0001)  MDS_WRITE_RL_VEC: irec =  00000012   00004416
(PID.TID 0000.0001)  MDS_WRITE_RL_VEC: irec =  00000012   00004416
(PID.TID 0000.0001)  MDS_WRITE_RL_VEC: irec =  00000012   00004416
(PID.TID 0000.0001)  MDS_WRITE_RL_VEC: irec =  00000012   00004416
(PID.TID 0000.0001)  MDS_WRITE_RL_VEC: irec =  00000012   00004416
(PID.TID 0000.0001)  MDS_WRITE_RL_VEC: irec =  00000012   00004416
(PID.TID 0000.0001)  MDS_WRITE_RL_VEC: irec =  00000012   00004416
(PID.TID 0000.0001)  MDS_WRITE_RL_VEC: irec =  00000012   00004416
(PID.TID 0000.0001)  MDS_WRITE_RL_VEC: irec =  00000012   00004416
(PID.TID 0000.0001)  MDS_WRITE_RL_VEC: irec =  00000012   00004416
(PID.TID 0000.0001)  MDS_WRITE_RL_VEC: irec =  00000012   00004416
(PID.TID 0000.0001)  MDS_WRITE_RL_VEC: irec =  00000012   00004416
(PID.TID 0000.0001)  MDS_WRITE_RL_VEC: irec =  00000012   00004416
(PID.TID 0000.0001)  MDS_WRITE_RL_VEC: irec =  00000012   00004416
(PID.TID 0000.0001)  MDS_WRITE_RL_VEC: irec =  00000012   00004416
(PID.TID 0000.0001)  MDS_WRITE_RL_VEC: irec =  00000012   00004416
(PID.TID 0000.0001)  MDS_WRITE_RL_VEC: irec =  00000012   00004416
time,SST,SSS,fu,fv,Q,E-P,i0,i1,a,b =   2.8512E+06  6.4256E-02  3.4538E+01 -2.2914E-02 -3.3484E-02  2.5060E+02  0.0000E+00     1     2  6.0000E-01  4.0000E-01
time,fu0,fu1,fu =   2.8512E+06 -3.5633E-02 -1.4435E-02 -2.2914E-02  6.0000E-01  4.0000E-01
 cg2d: Sum(rhs),rhsMax =   3.13638004456607E-14  1.18939190521365E+01
(PID.TID 0000.0001)                    cg2d_init_res =    3.21493063927233E-01
(PID.TID 0000.0001)                       cg2d_iters =    24
(PID.TID 0000.0001)                         cg2d_res =    4.58718635113936E-14
(PID.TID 0000.0001) // =======================================================
(PID.TID 0000.0001) // Begin MONITOR dynamic field statistics
(PID.TID 0000.0001) // =======================================================
(PID.TID 0000.0001) %MON time_tsnumber                =                    67
(PID.TID 0000.0001) %MON time_secondsf                =   2.8944000000000E+06
(PID.TID 0000.0001) %MON dynstat_eta_max              =   1.4066956535943E+00
(PID.TID 0000.0001) %MON dynstat_eta_min              =  -1.3880859188702E+00
(PID.TID 0000.0001) %MON dynstat_eta_mean             =   3.5481494584866E-18
(PID.TID 0000.0001) %MON dynstat_eta_sd               =   4.2557304950124E-01
(PID.TID 0000.0001) %MON dynstat_eta_del2             =   1.9804765791583E-02
(PID.TID 0000.0001) %MON dynstat_uvel_max             =   1.9562543598164E-01
(PID.TID 0000.0001) %MON dynstat_uvel_min             =  -1.7278029992751E-01
(PID.TID 0000.0001) %MON dynstat_uvel_mean            =   2.2985311919005E-05
(PID.TID 0000.0001) %MON dynstat_uvel_sd              =   1.8975311228249E-02
(PID.TID 0000.0001) %MON dynstat_uvel_del2            =   5.1096805551751E-03
(PID.TID 0000.0001) %MON dynstat_vvel_max             =   1.7795511302102E-01
(PID.TID 0000.0001) %MON dynstat_vvel_min             =  -1.4879467064393E-01
(PID.TID 0000.0001) %MON dynstat_vvel_mean            =  -2.1679481002705E-03
(PID.TID 0000.0001) %MON dynstat_vvel_sd              =   1.5209786345500E-02
(PID.TID 0000.0001) %MON dynstat_vvel_del2            =   4.6646018856027E-03
(PID.TID 0000.0001) %MON dynstat_wvel_max             =   3.5840527052857E-04
(PID.TID 0000.0001) %MON dynstat_wvel_min             =  -2.2538062041502E-04
(PID.TID 0000.0001) %MON dynstat_wvel_mean            =   5.4309028233062E-22
(PID.TID 0000.0001) %MON dynstat_wvel_sd              =   2.5333196906514E-05
(PID.TID 0000.0001) %MON dynstat_wvel_del2            =   9.9988330798141E-06
(PID.TID 0000.0001) %MON dynstat_theta_max            =   2.9701264024708E+01
(PID.TID 0000.0001) %MON dynstat_theta_min            =  -1.9590768640293E+00
(PID.TID 0000.0001) %MON dynstat_theta_mean           =   3.5916935967279E+00
(PID.TID 0000.0001) %MON dynstat_theta_sd             =   4.3404166954272E+00
(PID.TID 0000.0001) %MON dynstat_theta_del2           =   1.3006776014867E-01
(PID.TID 0000.0001) %MON dynstat_salt_max             =   3.7391239057366E+01
(PID.TID 0000.0001) %MON dynstat_salt_min             =   2.9785193399526E+01
(PID.TID 0000.0001) %MON dynstat_salt_mean            =   3.4716162417978E+01
(PID.TID 0000.0001) %MON dynstat_salt_sd              =   2.9397893041370E-01
(PID.TID 0000.0001) %MON dynstat_salt_del2            =   2.3750723760484E-02
(PID.TID 0000.0001) %MON advcfl_uvel_max              =   3.5861014423997E-02
(PID.TID 0000.0001) %MON advcfl_vvel_max              =   1.7286912201552E-02
(PID.TID 0000.0001) %MON advcfl_wvel_max              =   1.1758840106840E-01
(PID.TID 0000.0001) %MON advcfl_W_hf_max              =   1.1884108650395E-01
(PID.TID 0000.0001) %MON pe_b_mean                    =   2.3175517197359E-04
(PID.TID 0000.0001) %MON ke_max                       =   1.8641792189157E-02
(PID.TID 0000.0001) %MON ke_mean                      =   2.6954967983638E-04
(PID.TID 0000.0001) %MON ke_vol                       =   1.3226782436723E+18
(PID.TID 0000.0001) %MON vort_r_min                   =  -1.0946760430796E-06
(PID.TID 0000.0001) %MON vort_r_max                   =   6.9286640186399E-07
(PID.TID 0000.0001) %MON vort_a_mean                  =  -2.5205768266577E-05
(PID.TID 0000.0001) %MON vort_a_sd                    =   7.3403381056420E-05
(PID.TID 0000.0001) %MON vort_p_mean                  =  -3.1758668137650E-05
(PID.TID 0000.0001) %MON vort_p_sd                    =   1.3126299718680E-04
(PID.TID 0000.0001) %MON surfExpan_theta_mean         =   1.4015534298085E-05
(PID.TID 0000.0001) %MON surfExpan_salt_mean          =   9.0867643124745E-07
(PID.TID 0000.0001) // =======================================================
(PID.TID 0000.0001) // End MONITOR dynamic field statistics
(PID.TID 0000.0001) // =======================================================
time,SST,SSS,fu,fv,Q,E-P,i0,i1,a,b =   2.8944E+06  3.9418E-02  3.4534E+01 -2.2561E-02 -3.2824E-02  2.5018E+02  0.0000E+00     1     2  6.1667E-01  3.8333E-01
time,fu0,fu1,fu =   2.8944E+06 -3.5633E-02 -1.4435E-02 -2.2561E-02  6.1667E-01  3.8333E-01
 cg2d: Sum(rhs),rhsMax =   1.16073817224560E-13  1.15154297935071E+01
(PID.TID 0000.0001)                    cg2d_init_res =    3.39778970194467E-01
(PID.TID 0000.0001)                       cg2d_iters =    24
(PID.TID 0000.0001)                         cg2d_res =    5.74832296071127E-14
(PID.TID 0000.0001) // =======================================================
(PID.TID 0000.0001) // Begin MONITOR dynamic field statistics
(PID.TID 0000.0001) // =======================================================
(PID.TID 0000.0001) %MON time_tsnumber                =                    68
(PID.TID 0000.0001) %MON time_secondsf                =   2.9376000000000E+06
(PID.TID 0000.0001) %MON dynstat_eta_max              =   1.3626275903415E+00
(PID.TID 0000.0001) %MON dynstat_eta_min              =  -1.4048897787063E+00
(PID.TID 0000.0001) %MON dynstat_eta_mean             =  -1.5421102116719E-17
(PID.TID 0000.0001) %MON dynstat_eta_sd               =   4.2688882098774E-01
(PID.TID 0000.0001) %MON dynstat_eta_del2             =   1.9752770786140E-02
(PID.TID 0000.0001) %MON dynstat_uvel_max             =   1.8916598551844E-01
(PID.TID 0000.0001) %MON dynstat_uvel_min             =  -1.6966049363000E-01
(PID.TID 0000.0001) %MON dynstat_uvel_mean            =   1.1487608106925E-04
(PID.TID 0000.0001) %MON dynstat_uvel_sd              =   1.9113900532500E-02
(PID.TID 0000.0001) %MON dynstat_uvel_del2            =   5.1014019259775E-03
(PID.TID 0000.0001) %MON dynstat_vvel_max             =   1.7993808618155E-01
(PID.TID 0000.0001) %MON dynstat_vvel_min             =  -1.5045538646099E-01
(PID.TID 0000.0001) %MON dynstat_vvel_mean            =  -2.1535016601899E-03
(PID.TID 0000.0001) %MON dynstat_vvel_sd              =   1.5236031189705E-02
(PID.TID 0000.0001) %MON dynstat_vvel_del2            =   4.6554262680526E-03
(PID.TID 0000.0001) %MON dynstat_wvel_max             =   3.6095554206939E-04
(PID.TID 0000.0001) %MON dynstat_wvel_min             =  -2.3300937223933E-04
(PID.TID 0000.0001) %MON dynstat_wvel_mean            =   3.1094682259544E-22
(PID.TID 0000.0001) %MON dynstat_wvel_sd              =   2.5187130309609E-05
(PID.TID 0000.0001) %MON dynstat_wvel_del2            =   9.9305891166077E-06
(PID.TID 0000.0001) %MON dynstat_theta_max            =   2.9703577836091E+01
(PID.TID 0000.0001) %MON dynstat_theta_min            =  -1.9580676689698E+00
(PID.TID 0000.0001) %MON dynstat_theta_mean           =   3.5915744293523E+00
(PID.TID 0000.0001) %MON dynstat_theta_sd             =   4.3401011483992E+00
(PID.TID 0000.0001) %MON dynstat_theta_del2           =   1.2989695156307E-01
(PID.TID 0000.0001) %MON dynstat_salt_max             =   3.7391547953465E+01
(PID.TID 0000.0001) %MON dynstat_salt_min             =   2.9783521665126E+01
(PID.TID 0000.0001) %MON dynstat_salt_mean            =   3.4716149706574E+01
(PID.TID 0000.0001) %MON dynstat_salt_sd              =   2.9398490743045E-01
(PID.TID 0000.0001) %MON dynstat_salt_del2            =   2.3712927614827E-02
(PID.TID 0000.0001) %MON advcfl_uvel_max              =   3.4676902321859E-02
(PID.TID 0000.0001) %MON advcfl_vvel_max              =   1.7479542142564E-02
(PID.TID 0000.0001) %MON advcfl_wvel_max              =   1.2992975702487E-01
(PID.TID 0000.0001) %MON advcfl_W_hf_max              =   1.3165137579797E-01
(PID.TID 0000.0001) %MON pe_b_mean                    =   2.3319045197495E-04
(PID.TID 0000.0001) %MON ke_max                       =   1.8418870611015E-02
(PID.TID 0000.0001) %MON ke_mean                      =   2.7228435382277E-04
(PID.TID 0000.0001) %MON ke_vol                       =   1.3226782436723E+18
(PID.TID 0000.0001) %MON vort_r_min                   =  -1.0879015285588E-06
(PID.TID 0000.0001) %MON vort_r_max                   =   6.8560795261696E-07
(PID.TID 0000.0001) %MON vort_a_mean                  =  -2.5205768226265E-05
(PID.TID 0000.0001) %MON vort_a_sd                    =   7.3403397301943E-05
(PID.TID 0000.0001) %MON vort_p_mean                  =  -3.1758668086858E-05
(PID.TID 0000.0001) %MON vort_p_sd                    =   1.3126295986987E-04
(PID.TID 0000.0001) %MON surfExpan_theta_mean         =   1.4408139820477E-05
(PID.TID 0000.0001) %MON surfExpan_salt_mean          =   1.0315071381995E-06
(PID.TID 0000.0001) // =======================================================
(PID.TID 0000.0001) // End MONITOR dynamic field statistics
(PID.TID 0000.0001) // =======================================================
time,SST,SSS,fu,fv,Q,E-P,i0,i1,a,b =   2.9376E+06  1.4580E-02  3.4529E+01 -2.2207E-02 -3.2163E-02  2.4975E+02  0.0000E+00     1     2  6.3333E-01  3.6667E-01
time,fu0,fu1,fu =   2.9376E+06 -3.5633E-02 -1.4435E-02 -2.2207E-02  6.3333E-01  3.6667E-01
 cg2d: Sum(rhs),rhsMax =  -1.42816314330219E-13  1.10412060552555E+01
(PID.TID 0000.0001)                    cg2d_init_res =    3.64462167187368E-01
(PID.TID 0000.0001)                       cg2d_iters =    24
(PID.TID 0000.0001)                         cg2d_res =    6.66344802431634E-14
(PID.TID 0000.0001) // =======================================================
(PID.TID 0000.0001) // Begin MONITOR dynamic field statistics
(PID.TID 0000.0001) // =======================================================
(PID.TID 0000.0001) %MON time_tsnumber                =                    69
(PID.TID 0000.0001) %MON time_secondsf                =   2.9808000000000E+06
(PID.TID 0000.0001) %MON dynstat_eta_max              =   1.3073816037490E+00
(PID.TID 0000.0001) %MON dynstat_eta_min              =  -1.4155163919769E+00
(PID.TID 0000.0001) %MON dynstat_eta_mean             =   6.8674439989386E-19
(PID.TID 0000.0001) %MON dynstat_eta_sd               =   4.2820888697113E-01
(PID.TID 0000.0001) %MON dynstat_eta_del2             =   1.9657949470799E-02
(PID.TID 0000.0001) %MON dynstat_uvel_max             =   1.8660353012966E-01
(PID.TID 0000.0001) %MON dynstat_uvel_min             =  -1.6969136090025E-01
(PID.TID 0000.0001) %MON dynstat_uvel_mean            =   2.0043449441775E-04
(PID.TID 0000.0001) %MON dynstat_uvel_sd              =   1.9222604052144E-02
(PID.TID 0000.0001) %MON dynstat_uvel_del2            =   5.0947192483564E-03
(PID.TID 0000.0001) %MON dynstat_vvel_max             =   1.8155388056147E-01
(PID.TID 0000.0001) %MON dynstat_vvel_min             =  -1.5191169363182E-01
(PID.TID 0000.0001) %MON dynstat_vvel_mean            =  -2.1218932965960E-03
(PID.TID 0000.0001) %MON dynstat_vvel_sd              =   1.5269331523777E-02
(PID.TID 0000.0001) %MON dynstat_vvel_del2            =   4.6490411067836E-03
(PID.TID 0000.0001) %MON dynstat_wvel_max             =   3.6337662380337E-04
(PID.TID 0000.0001) %MON dynstat_wvel_min             =  -2.3934972990485E-04
(PID.TID 0000.0001) %MON dynstat_wvel_mean            =  -3.7317856106362E-22
(PID.TID 0000.0001) %MON dynstat_wvel_sd              =   2.5051936952166E-05
(PID.TID 0000.0001) %MON dynstat_wvel_del2            =   9.8681679943797E-06
(PID.TID 0000.0001) %MON dynstat_theta_max            =   2.9706284654608E+01
(PID.TID 0000.0001) %MON dynstat_theta_min            =  -1.9568141952881E+00
(PID.TID 0000.0001) %MON dynstat_theta_mean           =   3.5914517924519E+00
(PID.TID 0000.0001) %MON dynstat_theta_sd             =   4.3397740530789E+00
(PID.TID 0000.0001) %MON dynstat_theta_del2           =   1.2971308553606E-01
(PID.TID 0000.0001) %MON dynstat_salt_max             =   3.7391868449068E+01
(PID.TID 0000.0001) %MON dynstat_salt_min             =   2.9781787517477E+01
(PID.TID 0000.0001) %MON dynstat_salt_mean            =   3.4716136086584E+01
(PID.TID 0000.0001) %MON dynstat_salt_sd              =   2.9398816110034E-01
(PID.TID 0000.0001) %MON dynstat_salt_del2            =   2.3679881335740E-02
(PID.TID 0000.0001) %MON advcfl_uvel_max              =   3.3226297619541E-02
(PID.TID 0000.0001) %MON advcfl_vvel_max              =   1.7636503609460E-02
(PID.TID 0000.0001) %MON advcfl_wvel_max              =   1.4049408406481E-01
(PID.TID 0000.0001) %MON advcfl_W_hf_max              =   1.4191446116936E-01
(PID.TID 0000.0001) %MON pe_b_mean                    =   2.3463486894579E-04
(PID.TID 0000.0001) %MON ke_max                       =   1.8358787683723E-02
(PID.TID 0000.0001) %MON ke_mean                      =   2.7458526851985E-04
(PID.TID 0000.0001) %MON ke_vol                       =   1.3226782436723E+18
(PID.TID 0000.0001) %MON vort_r_min                   =  -1.0794037784455E-06
(PID.TID 0000.0001) %MON vort_r_max                   =   6.7710802179166E-07
(PID.TID 0000.0001) %MON vort_a_mean                  =  -2.5205768185821E-05
(PID.TID 0000.0001) %MON vort_a_sd                    =   7.3403412186145E-05
(PID.TID 0000.0001) %MON vort_p_mean                  =  -3.1758668035899E-05
(PID.TID 0000.0001) %MON vort_p_sd                    =   1.3126292533632E-04
(PID.TID 0000.0001) %MON surfExpan_theta_mean         =   1.4756031984601E-05
(PID.TID 0000.0001) %MON surfExpan_salt_mean          =   1.1334711508194E-06
(PID.TID 0000.0001) // =======================================================
(PID.TID 0000.0001) // End MONITOR dynamic field statistics
(PID.TID 0000.0001) // =======================================================
time,SST,SSS,fu,fv,Q,E-P,i0,i1,a,b =   2.9808E+06 -1.0258E-02  3.4524E+01 -2.1854E-02 -3.1503E-02  2.4933E+02  0.0000E+00     1     2  6.5000E-01  3.5000E-01
time,fu0,fu1,fu =   2.9808E+06 -3.5633E-02 -1.4435E-02 -2.1854E-02  6.5000E-01  3.5000E-01
 cg2d: Sum(rhs),rhsMax =  -9.41330347004055E-14  1.04884337338887E+01
(PID.TID 0000.0001)                    cg2d_init_res =    3.94529851225672E-01
(PID.TID 0000.0001)                       cg2d_iters =    24
(PID.TID 0000.0001)                         cg2d_res =    7.47433895062277E-14
(PID.TID 0000.0001) // =======================================================
(PID.TID 0000.0001) // Begin MONITOR dynamic field statistics
(PID.TID 0000.0001) // =======================================================
(PID.TID 0000.0001) %MON time_tsnumber                =                    70
(PID.TID 0000.0001) %MON time_secondsf                =   3.0240000000000E+06
(PID.TID 0000.0001) %MON dynstat_eta_max              =   1.2429553428867E+00
(PID.TID 0000.0001) %MON dynstat_eta_min              =  -1.4199227422671E+00
(PID.TID 0000.0001) %MON dynstat_eta_mean             =   3.7742129573167E-18
(PID.TID 0000.0001) %MON dynstat_eta_sd               =   4.2955782729990E-01
(PID.TID 0000.0001) %MON dynstat_eta_del2             =   1.9560093417411E-02
(PID.TID 0000.0001) %MON dynstat_uvel_max             =   1.8460468439252E-01
(PID.TID 0000.0001) %MON dynstat_uvel_min             =  -1.6954833821097E-01
(PID.TID 0000.0001) %MON dynstat_uvel_mean            =   2.8004441136759E-04
(PID.TID 0000.0001) %MON dynstat_uvel_sd              =   1.9298301504344E-02
(PID.TID 0000.0001) %MON dynstat_uvel_del2            =   5.0883550438808E-03
(PID.TID 0000.0001) %MON dynstat_vvel_max             =   1.8279488125917E-01
(PID.TID 0000.0001) %MON dynstat_vvel_min             =  -1.5316325920267E-01
(PID.TID 0000.0001) %MON dynstat_vvel_mean            =  -2.0751667604090E-03
(PID.TID 0000.0001) %MON dynstat_vvel_sd              =   1.5307925906363E-02
(PID.TID 0000.0001) %MON dynstat_vvel_del2            =   4.6456649791011E-03
(PID.TID 0000.0001) %MON dynstat_wvel_max             =   3.6566803825450E-04
(PID.TID 0000.0001) %MON dynstat_wvel_min             =  -2.4433601423637E-04
(PID.TID 0000.0001) %MON dynstat_wvel_mean            =   3.8686914330643E-22
(PID.TID 0000.0001) %MON dynstat_wvel_sd              =   2.4922578130406E-05
(PID.TID 0000.0001) %MON dynstat_wvel_del2            =   9.8128647284599E-06
(PID.TID 0000.0001) %MON dynstat_theta_max            =   2.9709395210829E+01
(PID.TID 0000.0001) %MON dynstat_theta_min            =  -1.9553075529503E+00
(PID.TID 0000.0001) %MON dynstat_theta_mean           =   3.5913262058160E+00
(PID.TID 0000.0001) %MON dynstat_theta_sd             =   4.3394364148666E+00
(PID.TID 0000.0001) %MON dynstat_theta_del2           =   1.2954586256690E-01
(PID.TID 0000.0001) %MON dynstat_salt_max             =   3.7392197524851E+01
(PID.TID 0000.0001) %MON dynstat_salt_min             =   2.9779997430230E+01
(PID.TID 0000.0001) %MON dynstat_salt_mean            =   3.4716121782317E+01
(PID.TID 0000.0001) %MON dynstat_salt_sd              =   2.9398741002412E-01
(PID.TID 0000.0001) %MON dynstat_salt_del2            =   2.3646931393812E-02
(PID.TID 0000.0001) %MON advcfl_uvel_max              =   3.2140128193216E-02
(PID.TID 0000.0001) %MON advcfl_vvel_max              =   1.7757056875612E-02
(PID.TID 0000.0001) %MON advcfl_wvel_max              =   1.4825596762276E-01
(PID.TID 0000.0001) %MON advcfl_W_hf_max              =   1.4941468518093E-01
(PID.TID 0000.0001) %MON pe_b_mean                    =   2.3611548729874E-04
(PID.TID 0000.0001) %MON ke_max                       =   1.8284901669003E-02
(PID.TID 0000.0001) %MON ke_mean                      =   2.7636915867519E-04
(PID.TID 0000.0001) %MON ke_vol                       =   1.3226782436723E+18
(PID.TID 0000.0001) %MON vort_r_min                   =  -1.0692128790782E-06
(PID.TID 0000.0001) %MON vort_r_max                   =   6.6738789624664E-07
(PID.TID 0000.0001) %MON vort_a_mean                  =  -2.5205768145873E-05
(PID.TID 0000.0001) %MON vort_a_sd                    =   7.3403425782246E-05
(PID.TID 0000.0001) %MON vort_p_mean                  =  -3.1758667985566E-05
(PID.TID 0000.0001) %MON vort_p_sd                    =   1.3126289422038E-04
(PID.TID 0000.0001) %MON surfExpan_theta_mean         =   1.5039801032072E-05
(PID.TID 0000.0001) %MON surfExpan_salt_mean          =   1.2083382620296E-06
(PID.TID 0000.0001) // =======================================================
(PID.TID 0000.0001) // End MONITOR dynamic field statistics
(PID.TID 0000.0001) // =======================================================
time,SST,SSS,fu,fv,Q,E-P,i0,i1,a,b =   3.0240E+06 -3.5096E-02  3.4519E+01 -2.1501E-02 -3.0843E-02  2.4891E+02  0.0000E+00     1     2  6.6667E-01  3.3333E-01
time,fu0,fu1,fu =   3.0240E+06 -3.5633E-02 -1.4435E-02 -2.1501E-02  6.6667E-01  3.3333E-01
 cg2d: Sum(rhs),rhsMax =   2.23154827949656E-13  9.87521761848856E+00
(PID.TID 0000.0001)                    cg2d_init_res =    4.28946567385830E-01
(PID.TID 0000.0001)                       cg2d_iters =    24
(PID.TID 0000.0001)                         cg2d_res =    8.22696040073840E-14
(PID.TID 0000.0001) // =======================================================
(PID.TID 0000.0001) // Begin MONITOR dynamic field statistics
(PID.TID 0000.0001) // =======================================================
(PID.TID 0000.0001) %MON time_tsnumber                =                    71
(PID.TID 0000.0001) %MON time_secondsf                =   3.0672000000000E+06
(PID.TID 0000.0001) %MON dynstat_eta_max              =   1.1714548190675E+00
(PID.TID 0000.0001) %MON dynstat_eta_min              =  -1.4184130678167E+00
(PID.TID 0000.0001) %MON dynstat_eta_mean             =  -9.0333282698322E-17
(PID.TID 0000.0001) %MON dynstat_eta_sd               =   4.3096163354796E-01
(PID.TID 0000.0001) %MON dynstat_eta_del2             =   1.9434294842138E-02
(PID.TID 0000.0001) %MON dynstat_uvel_max             =   1.8984060755039E-01
(PID.TID 0000.0001) %MON dynstat_uvel_min             =  -1.6923699381198E-01
(PID.TID 0000.0001) %MON dynstat_uvel_mean            =   3.5412378528728E-04
(PID.TID 0000.0001) %MON dynstat_uvel_sd              =   1.9339002723806E-02
(PID.TID 0000.0001) %MON dynstat_uvel_del2            =   5.0814911751207E-03
(PID.TID 0000.0001) %MON dynstat_vvel_max             =   1.8365439571666E-01
(PID.TID 0000.0001) %MON dynstat_vvel_min             =  -1.5421197693968E-01
(PID.TID 0000.0001) %MON dynstat_vvel_mean            =  -2.0154263151025E-03
(PID.TID 0000.0001) %MON dynstat_vvel_sd              =   1.5349248979042E-02
(PID.TID 0000.0001) %MON dynstat_vvel_del2            =   4.6429280959933E-03
(PID.TID 0000.0001) %MON dynstat_wvel_max             =   3.6782925770002E-04
(PID.TID 0000.0001) %MON dynstat_wvel_min             =  -2.4791746035326E-04
(PID.TID 0000.0001) %MON dynstat_wvel_mean            =   2.5853502703452E-22
(PID.TID 0000.0001) %MON dynstat_wvel_sd              =   2.4793351875683E-05
(PID.TID 0000.0001) %MON dynstat_wvel_del2            =   9.7619505912351E-06
(PID.TID 0000.0001) %MON dynstat_theta_max            =   2.9712907423001E+01
(PID.TID 0000.0001) %MON dynstat_theta_min            =  -1.9532593172830E+00
(PID.TID 0000.0001) %MON dynstat_theta_mean           =   3.5911985799463E+00
(PID.TID 0000.0001) %MON dynstat_theta_sd             =   4.3390881607555E+00
(PID.TID 0000.0001) %MON dynstat_theta_del2           =   1.2935947540307E-01
(PID.TID 0000.0001) %MON dynstat_salt_max             =   3.7392530408672E+01
(PID.TID 0000.0001) %MON dynstat_salt_min             =   2.9778158523985E+01
(PID.TID 0000.0001) %MON dynstat_salt_mean            =   3.4716107146406E+01
(PID.TID 0000.0001) %MON dynstat_salt_sd              =   2.9398068683070E-01
(PID.TID 0000.0001) %MON dynstat_salt_del2            =   2.3608397502430E-02
(PID.TID 0000.0001) %MON advcfl_uvel_max              =   3.1539243026725E-02
(PID.TID 0000.0001) %MON advcfl_vvel_max              =   1.7840551812680E-02
(PID.TID 0000.0001) %MON advcfl_wvel_max              =   1.5307039625817E-01
(PID.TID 0000.0001) %MON advcfl_W_hf_max              =   1.5401321214792E-01
(PID.TID 0000.0001) %MON pe_b_mean                    =   2.3766127222393E-04
(PID.TID 0000.0001) %MON ke_max                       =   1.8195220992847E-02
(PID.TID 0000.0001) %MON ke_mean                      =   2.7756398496039E-04
(PID.TID 0000.0001) %MON ke_vol                       =   1.3226782436723E+18
(PID.TID 0000.0001) %MON vort_r_min                   =  -1.0573859702006E-06
(PID.TID 0000.0001) %MON vort_r_max                   =   6.5647318064542E-07
(PID.TID 0000.0001) %MON vort_a_mean                  =  -2.5205768106994E-05
(PID.TID 0000.0001) %MON vort_a_sd                    =   7.3403438174767E-05
(PID.TID 0000.0001) %MON vort_p_mean                  =  -3.1758667936579E-05
(PID.TID 0000.0001) %MON vort_p_sd                    =   1.3126286696576E-04
(PID.TID 0000.0001) %MON surfExpan_theta_mean         =   1.5258736679381E-05
(PID.TID 0000.0001) %MON surfExpan_salt_mean          =   1.2550985937338E-06
(PID.TID 0000.0001) // =======================================================
(PID.TID 0000.0001) // End MONITOR dynamic field statistics
(PID.TID 0000.0001) // =======================================================
time,SST,SSS,fu,fv,Q,E-P,i0,i1,a,b =   3.0672E+06 -5.9934E-02  3.4514E+01 -2.1147E-02 -3.0182E-02  2.4849E+02  0.0000E+00     1     2  6.8333E-01  3.1667E-01
time,fu0,fu1,fu =   3.0672E+06 -3.5633E-02 -1.4435E-02 -2.1147E-02  6.8333E-01  3.1667E-01
 cg2d: Sum(rhs),rhsMax =  -3.18217674433185E-14  9.22003939404326E+00
(PID.TID 0000.0001)                    cg2d_init_res =    4.66718525253320E-01
(PID.TID 0000.0001)                       cg2d_iters =    24
(PID.TID 0000.0001)                         cg2d_res =    8.88302502301044E-14
(PID.TID 0000.0001) // =======================================================
(PID.TID 0000.0001) // Begin MONITOR dynamic field statistics
(PID.TID 0000.0001) // =======================================================
(PID.TID 0000.0001) %MON time_tsnumber                =                    72
(PID.TID 0000.0001) %MON time_secondsf                =   3.1104000000000E+06
(PID.TID 0000.0001) %MON dynstat_eta_max              =   1.0950314166116E+00
(PID.TID 0000.0001) %MON dynstat_eta_min              =  -1.4116009622858E+00
(PID.TID 0000.0001) %MON dynstat_eta_mean             =   3.7298221370417E-17
(PID.TID 0000.0001) %MON dynstat_eta_sd               =   4.3244295965058E-01
(PID.TID 0000.0001) %MON dynstat_eta_del2             =   1.9320420778692E-02
(PID.TID 0000.0001) %MON dynstat_uvel_max             =   1.9424974475231E-01
(PID.TID 0000.0001) %MON dynstat_uvel_min             =  -1.6876427243345E-01
(PID.TID 0000.0001) %MON dynstat_uvel_mean            =   4.2311050955096E-04
(PID.TID 0000.0001) %MON dynstat_uvel_sd              =   1.9343851742269E-02
(PID.TID 0000.0001) %MON dynstat_uvel_del2            =   5.0742252166870E-03
(PID.TID 0000.0001) %MON dynstat_vvel_max             =   1.8412679365616E-01
(PID.TID 0000.0001) %MON dynstat_vvel_min             =  -1.5506146227587E-01
(PID.TID 0000.0001) %MON dynstat_vvel_mean            =  -1.9448075427115E-03
(PID.TID 0000.0001) %MON dynstat_vvel_sd              =   1.5390329039447E-02
(PID.TID 0000.0001) %MON dynstat_vvel_del2            =   4.6422526479594E-03
(PID.TID 0000.0001) %MON dynstat_wvel_max             =   3.6986019805580E-04
(PID.TID 0000.0001) %MON dynstat_wvel_min             =  -2.5005890163675E-04
(PID.TID 0000.0001) %MON dynstat_wvel_mean            =  -3.4713852338683E-22
(PID.TID 0000.0001) %MON dynstat_wvel_sd              =   2.4658896803563E-05
(PID.TID 0000.0001) %MON dynstat_wvel_del2            =   9.7098982749068E-06
(PID.TID 0000.0001) %MON dynstat_theta_max            =   2.9716810222506E+01
(PID.TID 0000.0001) %MON dynstat_theta_min            =  -1.9505732363603E+00
(PID.TID 0000.0001) %MON dynstat_theta_mean           =   3.5910695112558E+00
(PID.TID 0000.0001) %MON dynstat_theta_sd             =   4.3387369585709E+00
(PID.TID 0000.0001) %MON dynstat_theta_del2           =   1.2922994963729E-01
(PID.TID 0000.0001) %MON dynstat_salt_max             =   3.7392860999117E+01
(PID.TID 0000.0001) %MON dynstat_salt_min             =   2.9776278290763E+01
(PID.TID 0000.0001) %MON dynstat_salt_mean            =   3.4716092478169E+01
(PID.TID 0000.0001) %MON dynstat_salt_sd              =   2.9397187258668E-01
(PID.TID 0000.0001) %MON dynstat_salt_del2            =   2.3577473792463E-02
(PID.TID 0000.0001) %MON advcfl_uvel_max              =   3.1063104680750E-02
(PID.TID 0000.0001) %MON advcfl_vvel_max              =   1.7886441484327E-02
(PID.TID 0000.0001) %MON advcfl_wvel_max              =   1.5487257092026E-01
(PID.TID 0000.0001) %MON advcfl_W_hf_max              =   1.5565013034518E-01
(PID.TID 0000.0001) %MON pe_b_mean                    =   2.3929788610571E-04
(PID.TID 0000.0001) %MON ke_max                       =   1.8087722208630E-02
(PID.TID 0000.0001) %MON ke_mean                      =   2.7811492672832E-04
(PID.TID 0000.0001) %MON ke_vol                       =   1.3226782436723E+18
(PID.TID 0000.0001) %MON vort_r_min                   =  -1.0440079158745E-06
(PID.TID 0000.0001) %MON vort_r_max                   =   6.4439430073579E-07
(PID.TID 0000.0001) %MON vort_a_mean                  =  -2.5205768069785E-05
(PID.TID 0000.0001) %MON vort_a_sd                    =   7.3403449454566E-05
(PID.TID 0000.0001) %MON vort_p_mean                  =  -3.1758667889697E-05
(PID.TID 0000.0001) %MON vort_p_sd                    =   1.3126284389195E-04
(PID.TID 0000.0001) %MON surfExpan_theta_mean         =   1.5411648485875E-05
(PID.TID 0000.0001) %MON surfExpan_salt_mean          =   1.2733233113790E-06
(PID.TID 0000.0001) // =======================================================
(PID.TID 0000.0001) // End MONITOR dynamic field statistics
(PID.TID 0000.0001) // =======================================================
(PID.TID 0000.0001)  MDS_WRITE_RL_VEC: irec =  00000013   00066240
(PID.TID 0000.0001)  MDS_WRITE_RL_VEC: irec =  00000013   00066240
(PID.TID 0000.0001)  MDS_WRITE_RL_VEC: irec =  00000013   00066240
(PID.TID 0000.0001)  MDS_WRITE_RL_VEC: irec =  00000013   00066240
(PID.TID 0000.0001)  MDS_WRITE_RL_VEC: irec =  00000013   00066240
(PID.TID 0000.0001)  MDS_WRITE_RL_VEC: irec =  00000013   00066240
(PID.TID 0000.0001)  MDS_WRITE_RL_VEC: irec =  00000013   00066240
(PID.TID 0000.0001)  MDS_WRITE_RL_VEC: irec =  00000013   00066240
(PID.TID 0000.0001)  MDS_WRITE_RL_VEC: irec =  00000013   00066240
(PID.TID 0000.0001)  MDS_WRITE_RL_VEC: irec =  00000013   00066240
(PID.TID 0000.0001)  MDS_WRITE_RL_VEC: irec =  00000013   00066240
(PID.TID 0000.0001)  MDS_WRITE_RL_VEC: irec =  00000013   00004416
(PID.TID 0000.0001)  MDS_WRITE_RL_VEC: irec =  00000013   00066240
(PID.TID 0000.0001)  MDS_WRITE_RL_VEC: irec =  00000013   00004416
(PID.TID 0000.0001)  MDS_WRITE_RL_VEC: irec =  00000013   00004416
(PID.TID 0000.0001)  MDS_WRITE_RL_VEC: irec =  00000013   00004416
(PID.TID 0000.0001)  MDS_WRITE_RL_VEC: irec =  00000013   00004416
(PID.TID 0000.0001)  MDS_WRITE_RL_VEC: irec =  00000013   00004416
(PID.TID 0000.0001)  MDS_WRITE_RL_VEC: irec =  00000013   00004416
(PID.TID 0000.0001)  MDS_WRITE_RL_VEC: irec =  00000013   00004416
(PID.TID 0000.0001)  MDS_WRITE_RL_VEC: irec =  00000013   00004416
(PID.TID 0000.0001)  MDS_WRITE_RL_VEC: irec =  00000013   00004416
(PID.TID 0000.0001)  MDS_WRITE_RL_VEC: irec =  00000013   00004416
(PID.TID 0000.0001)  MDS_WRITE_RL_VEC: irec =  00000013   00004416
(PID.TID 0000.0001)  MDS_WRITE_RL_VEC: irec =  00000013   00004416
(PID.TID 0000.0001)  MDS_WRITE_RL_VEC: irec =  00000013   00004416
(PID.TID 0000.0001)  MDS_WRITE_RL_VEC: irec =  00000013   00004416
(PID.TID 0000.0001)  MDS_WRITE_RL_VEC: irec =  00000013   00004416
(PID.TID 0000.0001)  MDS_WRITE_RL_VEC: irec =  00000013   00004416
(PID.TID 0000.0001)  MDS_WRITE_RL_VEC: irec =  00000013   00004416
(PID.TID 0000.0001)  MDS_WRITE_RL_VEC: irec =  00000013   00004416
time,SST,SSS,fu,fv,Q,E-P,i0,i1,a,b =   3.1104E+06 -8.4772E-02  3.4509E+01 -2.0794E-02 -2.9522E-02  2.4807E+02  0.0000E+00     1     2  7.0000E-01  3.0000E-01
time,fu0,fu1,fu =   3.1104E+06 -3.5633E-02 -1.4435E-02 -2.0794E-02  7.0000E-01  3.0000E-01
 cg2d: Sum(rhs),rhsMax =  -3.88786225435922E-13  8.54125117040081E+00
(PID.TID 0000.0001)                    cg2d_init_res =    5.06880882606033E-01
(PID.TID 0000.0001)                       cg2d_iters =    24
(PID.TID 0000.0001)                         cg2d_res =    9.00636611419659E-14
(PID.TID 0000.0001) // =======================================================
(PID.TID 0000.0001) // Begin MONITOR dynamic field statistics
(PID.TID 0000.0001) // =======================================================
(PID.TID 0000.0001) %MON time_tsnumber                =                    73
(PID.TID 0000.0001) %MON time_secondsf                =   3.1536000000000E+06
(PID.TID 0000.0001) %MON dynstat_eta_max              =   1.0158229164879E+00
(PID.TID 0000.0001) %MON dynstat_eta_min              =  -1.4003545386460E+00
(PID.TID 0000.0001) %MON dynstat_eta_mean             =  -3.7140913843127E-17
(PID.TID 0000.0001) %MON dynstat_eta_sd               =   4.3401688950015E-01
(PID.TID 0000.0001) %MON dynstat_eta_del2             =   1.9231601047148E-02
(PID.TID 0000.0001) %MON dynstat_uvel_max             =   1.9748084539941E-01
(PID.TID 0000.0001) %MON dynstat_uvel_min             =  -1.6813811263330E-01
(PID.TID 0000.0001) %MON dynstat_uvel_mean            =   4.8739728784387E-04
(PID.TID 0000.0001) %MON dynstat_uvel_sd              =   1.9313090362378E-02
(PID.TID 0000.0001) %MON dynstat_uvel_del2            =   5.0662642366558E-03
(PID.TID 0000.0001) %MON dynstat_vvel_max             =   1.8420768455077E-01
(PID.TID 0000.0001) %MON dynstat_vvel_min             =  -1.5571662511710E-01
(PID.TID 0000.0001) %MON dynstat_vvel_mean            =  -1.8653737811156E-03
(PID.TID 0000.0001) %MON dynstat_vvel_sd              =   1.5428185370164E-02
(PID.TID 0000.0001) %MON dynstat_vvel_del2            =   4.6413181182753E-03
(PID.TID 0000.0001) %MON dynstat_wvel_max             =   3.7176170766416E-04
(PID.TID 0000.0001) %MON dynstat_wvel_min             =  -2.5074138215602E-04
(PID.TID 0000.0001) %MON dynstat_wvel_mean            =  -2.4537472113752E-22
(PID.TID 0000.0001) %MON dynstat_wvel_sd              =   2.4514859648974E-05
(PID.TID 0000.0001) %MON dynstat_wvel_del2            =   9.6542561624219E-06
(PID.TID 0000.0001) %MON dynstat_theta_max            =   2.9721156213350E+01
(PID.TID 0000.0001) %MON dynstat_theta_min            =  -1.9473554112603E+00
(PID.TID 0000.0001) %MON dynstat_theta_mean           =   3.5909399180625E+00
(PID.TID 0000.0001) %MON dynstat_theta_sd             =   4.3383844121043E+00
(PID.TID 0000.0001) %MON dynstat_theta_del2           =   1.2911267401505E-01
(PID.TID 0000.0001) %MON dynstat_salt_max             =   3.7393182400274E+01
(PID.TID 0000.0001) %MON dynstat_salt_min             =   2.9774364316864E+01
(PID.TID 0000.0001) %MON dynstat_salt_mean            =   3.4716078102223E+01
(PID.TID 0000.0001) %MON dynstat_salt_sd              =   2.9395991281689E-01
(PID.TID 0000.0001) %MON dynstat_salt_del2            =   2.3550637415387E-02
(PID.TID 0000.0001) %MON advcfl_uvel_max              =   3.1054878097922E-02
(PID.TID 0000.0001) %MON advcfl_vvel_max              =   1.7894299386071E-02
(PID.TID 0000.0001) %MON advcfl_wvel_max              =   1.5367699350676E-01
(PID.TID 0000.0001) %MON advcfl_W_hf_max              =   1.5434346372790E-01
(PID.TID 0000.0001) %MON pe_b_mean                    =   2.4104296479412E-04
(PID.TID 0000.0001) %MON ke_max                       =   1.8253805112668E-02
(PID.TID 0000.0001) %MON ke_mean                      =   2.7798917067586E-04
(PID.TID 0000.0001) %MON ke_vol                       =   1.3226782436723E+18
(PID.TID 0000.0001) %MON vort_r_min                   =  -1.0291910500414E-06
(PID.TID 0000.0001) %MON vort_r_max                   =   6.5110084516262E-07
(PID.TID 0000.0001) %MON vort_a_mean                  =  -2.5205768034849E-05
(PID.TID 0000.0001) %MON vort_a_sd                    =   7.3403459705052E-05
(PID.TID 0000.0001) %MON vort_p_mean                  =  -3.1758667845679E-05
(PID.TID 0000.0001) %MON vort_p_sd                    =   1.3126282502038E-04
(PID.TID 0000.0001) %MON surfExpan_theta_mean         =   1.5502808173429E-05
(PID.TID 0000.0001) %MON surfExpan_salt_mean          =   1.2639703331007E-06
(PID.TID 0000.0001) // =======================================================
(PID.TID 0000.0001) // End MONITOR dynamic field statistics
(PID.TID 0000.0001) // =======================================================
time,SST,SSS,fu,fv,Q,E-P,i0,i1,a,b =   3.1536E+06 -1.0961E-01  3.4504E+01 -2.0441E-02 -2.8862E-02  2.4765E+02  0.0000E+00     1     2  7.1667E-01  2.8333E-01
time,fu0,fu1,fu =   3.1536E+06 -3.5633E-02 -1.4435E-02 -2.0441E-02  7.1667E-01  2.8333E-01
 cg2d: Sum(rhs),rhsMax =   4.48446835221716E-13  7.85660875145875E+00
(PID.TID 0000.0001)                    cg2d_init_res =    5.48481170074057E-01
(PID.TID 0000.0001)                       cg2d_iters =    24
(PID.TID 0000.0001)                         cg2d_res =    4.81060077093608E-14
(PID.TID 0000.0001) // =======================================================
(PID.TID 0000.0001) // Begin MONITOR dynamic field statistics
(PID.TID 0000.0001) // =======================================================
(PID.TID 0000.0001) %MON time_tsnumber                =                    74
(PID.TID 0000.0001) %MON time_secondsf                =   3.1968000000000E+06
(PID.TID 0000.0001) %MON dynstat_eta_max              =   9.3589916715424E-01
(PID.TID 0000.0001) %MON dynstat_eta_min              =  -1.3857272973903E+00
(PID.TID 0000.0001) %MON dynstat_eta_mean             =  -8.6981655370328E-17
(PID.TID 0000.0001) %MON dynstat_eta_sd               =   4.3568829238764E-01
(PID.TID 0000.0001) %MON dynstat_eta_del2             =   1.9173078885193E-02
(PID.TID 0000.0001) %MON dynstat_uvel_max             =   1.9950835806821E-01
(PID.TID 0000.0001) %MON dynstat_uvel_min             =  -1.6736723426864E-01
(PID.TID 0000.0001) %MON dynstat_uvel_mean            =   5.4734891882967E-04
(PID.TID 0000.0001) %MON dynstat_uvel_sd              =   1.9247952373606E-02
(PID.TID 0000.0001) %MON dynstat_uvel_del2            =   5.0566207919900E-03
(PID.TID 0000.0001) %MON dynstat_vvel_max             =   1.8389406047561E-01
(PID.TID 0000.0001) %MON dynstat_vvel_min             =  -1.5618331886484E-01
(PID.TID 0000.0001) %MON dynstat_vvel_mean            =  -1.7791093166785E-03
(PID.TID 0000.0001) %MON dynstat_vvel_sd              =   1.5460171201546E-02
(PID.TID 0000.0001) %MON dynstat_vvel_del2            =   4.6386791751605E-03
(PID.TID 0000.0001) %MON dynstat_wvel_max             =   3.7353598816035E-04
(PID.TID 0000.0001) %MON dynstat_wvel_min             =  -2.4996266583930E-04
(PID.TID 0000.0001) %MON dynstat_wvel_mean            =  -3.6086846686767E-23
(PID.TID 0000.0001) %MON dynstat_wvel_sd              =   2.4358549875375E-05
(PID.TID 0000.0001) %MON dynstat_wvel_del2            =   9.5932546300540E-06
(PID.TID 0000.0001) %MON dynstat_theta_max            =   2.9726041907497E+01
(PID.TID 0000.0001) %MON dynstat_theta_min            =  -1.9436340944624E+00
(PID.TID 0000.0001) %MON dynstat_theta_mean           =   3.5908104269496E+00
(PID.TID 0000.0001) %MON dynstat_theta_sd             =   4.3380342799715E+00
(PID.TID 0000.0001) %MON dynstat_theta_del2           =   1.2898979782706E-01
(PID.TID 0000.0001) %MON dynstat_salt_max             =   3.7393487453828E+01
(PID.TID 0000.0001) %MON dynstat_salt_min             =   2.9772424019166E+01
(PID.TID 0000.0001) %MON dynstat_salt_mean            =   3.4716064291470E+01
(PID.TID 0000.0001) %MON dynstat_salt_sd              =   2.9394548275396E-01
(PID.TID 0000.0001) %MON dynstat_salt_del2            =   2.3523230119884E-02
(PID.TID 0000.0001) %MON advcfl_uvel_max              =   3.1036231727382E-02
(PID.TID 0000.0001) %MON advcfl_vvel_max              =   1.7863833322132E-02
(PID.TID 0000.0001) %MON advcfl_wvel_max              =   1.4957408060983E-01
(PID.TID 0000.0001) %MON advcfl_W_hf_max              =   1.5018575658258E-01
(PID.TID 0000.0001) %MON pe_b_mean                    =   2.4290305671302E-04
(PID.TID 0000.0001) %MON ke_max                       =   1.8746541433838E-02
(PID.TID 0000.0001) %MON ke_mean                      =   2.7717861908871E-04
(PID.TID 0000.0001) %MON ke_vol                       =   1.3226782436723E+18
(PID.TID 0000.0001) %MON vort_r_min                   =  -1.0130739725216E-06
(PID.TID 0000.0001) %MON vort_r_max                   =   6.5942488062971E-07
(PID.TID 0000.0001) %MON vort_a_mean                  =  -2.5205768002712E-05
(PID.TID 0000.0001) %MON vort_a_sd                    =   7.3403469005229E-05
(PID.TID 0000.0001) %MON vort_p_mean                  =  -3.1758667805187E-05
(PID.TID 0000.0001) %MON vort_p_sd                    =   1.3126281024389E-04
(PID.TID 0000.0001) %MON surfExpan_theta_mean         =   1.5535583932280E-05
(PID.TID 0000.0001) %MON surfExpan_salt_mean          =   1.2286729006231E-06
(PID.TID 0000.0001) // =======================================================
(PID.TID 0000.0001) // End MONITOR dynamic field statistics
(PID.TID 0000.0001) // =======================================================
time,SST,SSS,fu,fv,Q,E-P,i0,i1,a,b =   3.1968E+06 -1.3445E-01  3.4499E+01 -2.0088E-02 -2.8201E-02  2.4722E+02  0.0000E+00     1     2  7.3333E-01  2.6667E-01
time,fu0,fu1,fu =   3.1968E+06 -3.5633E-02 -1.4435E-02 -2.0088E-02  7.3333E-01  2.6667E-01
 cg2d: Sum(rhs),rhsMax =   3.78030939884866E-13  7.50280922718734E+00
(PID.TID 0000.0001)                    cg2d_init_res =    5.65336949939099E-01
(PID.TID 0000.0001)                       cg2d_iters =    24
(PID.TID 0000.0001)                         cg2d_res =    9.43481579573662E-14
(PID.TID 0000.0001) // =======================================================
(PID.TID 0000.0001) // Begin MONITOR dynamic field statistics
(PID.TID 0000.0001) // =======================================================
(PID.TID 0000.0001) %MON time_tsnumber                =                    75
(PID.TID 0000.0001) %MON time_secondsf                =   3.2400000000000E+06
(PID.TID 0000.0001) %MON dynstat_eta_max              =   9.2083889099518E-01
(PID.TID 0000.0001) %MON dynstat_eta_min              =  -1.3688834081211E+00
(PID.TID 0000.0001) %MON dynstat_eta_mean             =   1.5385836266177E-17
(PID.TID 0000.0001) %MON dynstat_eta_sd               =   4.3745073367825E-01
(PID.TID 0000.0001) %MON dynstat_eta_del2             =   1.9116822536654E-02
(PID.TID 0000.0001) %MON dynstat_uvel_max             =   2.0032288577370E-01
(PID.TID 0000.0001) %MON dynstat_uvel_min             =  -1.6646055584350E-01
(PID.TID 0000.0001) %MON dynstat_uvel_mean            =   6.0327265396342E-04
(PID.TID 0000.0001) %MON dynstat_uvel_sd              =   1.9150530081801E-02
(PID.TID 0000.0001) %MON dynstat_uvel_del2            =   5.0458277372053E-03
(PID.TID 0000.0001) %MON dynstat_vvel_max             =   1.8318439764256E-01
(PID.TID 0000.0001) %MON dynstat_vvel_min             =  -1.5646802809315E-01
(PID.TID 0000.0001) %MON dynstat_vvel_mean            =  -1.6878587406770E-03
(PID.TID 0000.0001) %MON dynstat_vvel_sd              =   1.5484227346520E-02
(PID.TID 0000.0001) %MON dynstat_vvel_del2            =   4.6340323749599E-03
(PID.TID 0000.0001) %MON dynstat_wvel_max             =   3.7518688383755E-04
(PID.TID 0000.0001) %MON dynstat_wvel_min             =  -2.4854277124655E-04
(PID.TID 0000.0001) %MON dynstat_wvel_mean            =  -3.1139016430763E-22
(PID.TID 0000.0001) %MON dynstat_wvel_sd              =   2.4189335261240E-05
(PID.TID 0000.0001) %MON dynstat_wvel_del2            =   9.5339183859033E-06
(PID.TID 0000.0001) %MON dynstat_theta_max            =   2.9731308777395E+01
(PID.TID 0000.0001) %MON dynstat_theta_min            =  -1.9394434137149E+00
(PID.TID 0000.0001) %MON dynstat_theta_mean           =   3.5906816719130E+00
(PID.TID 0000.0001) %MON dynstat_theta_sd             =   4.3376895939369E+00
(PID.TID 0000.0001) %MON dynstat_theta_del2           =   1.2888888532118E-01
(PID.TID 0000.0001) %MON dynstat_salt_max             =   3.7393769237129E+01
(PID.TID 0000.0001) %MON dynstat_salt_min             =   2.9770464408378E+01
(PID.TID 0000.0001) %MON dynstat_salt_mean            =   3.4716051294228E+01
(PID.TID 0000.0001) %MON dynstat_salt_sd              =   2.9392908781005E-01
(PID.TID 0000.0001) %MON dynstat_salt_del2            =   2.3497158477090E-02
(PID.TID 0000.0001) %MON advcfl_uvel_max              =   3.1008607990883E-02
(PID.TID 0000.0001) %MON advcfl_vvel_max              =   1.7794895268713E-02
(PID.TID 0000.0001) %MON advcfl_wvel_max              =   1.4272415145732E-01
(PID.TID 0000.0001) %MON advcfl_W_hf_max              =   1.4333808285228E-01
(PID.TID 0000.0001) %MON pe_b_mean                    =   2.4487220879573E-04
(PID.TID 0000.0001) %MON ke_max                       =   1.9084217917436E-02
(PID.TID 0000.0001) %MON ke_mean                      =   2.7570048588925E-04
(PID.TID 0000.0001) %MON ke_vol                       =   1.3226782436723E+18
(PID.TID 0000.0001) %MON vort_r_min                   =  -9.9581825338989E-07
(PID.TID 0000.0001) %MON vort_r_max                   =   6.6786205962811E-07
(PID.TID 0000.0001) %MON vort_a_mean                  =  -2.5205767974028E-05
(PID.TID 0000.0001) %MON vort_a_sd                    =   7.3403477420027E-05
(PID.TID 0000.0001) %MON vort_p_mean                  =  -3.1758667769045E-05
(PID.TID 0000.0001) %MON vort_p_sd                    =   1.3126279929847E-04
(PID.TID 0000.0001) %MON surfExpan_theta_mean         =   1.5514110572687E-05
(PID.TID 0000.0001) %MON surfExpan_salt_mean          =   1.1696541083047E-06
(PID.TID 0000.0001) // =======================================================
(PID.TID 0000.0001) // End MONITOR dynamic field statistics
(PID.TID 0000.0001) // =======================================================
time,SST,SSS,fu,fv,Q,E-P,i0,i1,a,b =   3.2400E+06 -1.5929E-01  3.4494E+01 -1.9734E-02 -2.7541E-02  2.4680E+02  0.0000E+00     1     2  7.5000E-01  2.5000E-01
time,fu0,fu1,fu =   3.2400E+06 -3.5633E-02 -1.4435E-02 -1.9734E-02  7.5000E-01  2.5000E-01
 cg2d: Sum(rhs),rhsMax =  -8.74578187648467E-13  7.40659063233431E+00
(PID.TID 0000.0001)                    cg2d_init_res =    5.57569703366644E-01
(PID.TID 0000.0001)                       cg2d_iters =    25
(PID.TID 0000.0001)                         cg2d_res =    2.46976426337892E-14
(PID.TID 0000.0001) // =======================================================
(PID.TID 0000.0001) // Begin MONITOR dynamic field statistics
(PID.TID 0000.0001) // =======================================================
(PID.TID 0000.0001) %MON time_tsnumber                =                    76
(PID.TID 0000.0001) %MON time_secondsf                =   3.2832000000000E+06
(PID.TID 0000.0001) %MON dynstat_eta_max              =   9.0917163635433E-01
(PID.TID 0000.0001) %MON dynstat_eta_min              =  -1.3510212882969E+00
(PID.TID 0000.0001) %MON dynstat_eta_mean             =   6.6513833159058E-17
(PID.TID 0000.0001) %MON dynstat_eta_sd               =   4.3928699613699E-01
(PID.TID 0000.0001) %MON dynstat_eta_del2             =   1.9052190674597E-02
(PID.TID 0000.0001) %MON dynstat_uvel_max             =   2.0288053192965E-01
(PID.TID 0000.0001) %MON dynstat_uvel_min             =  -1.6542715380207E-01
(PID.TID 0000.0001) %MON dynstat_uvel_mean            =   6.5539460570730E-04
(PID.TID 0000.0001) %MON dynstat_uvel_sd              =   1.9023604268995E-02
(PID.TID 0000.0001) %MON dynstat_uvel_del2            =   5.0329921045545E-03
(PID.TID 0000.0001) %MON dynstat_vvel_max             =   1.8207880525253E-01
(PID.TID 0000.0001) %MON dynstat_vvel_min             =  -1.5657758741988E-01
(PID.TID 0000.0001) %MON dynstat_vvel_mean            =  -1.5932920991970E-03
(PID.TID 0000.0001) %MON dynstat_vvel_sd              =   1.5499024265033E-02
(PID.TID 0000.0001) %MON dynstat_vvel_del2            =   4.6275083628172E-03
(PID.TID 0000.0001) %MON dynstat_wvel_max             =   3.7671996526581E-04
(PID.TID 0000.0001) %MON dynstat_wvel_min             =  -2.4904222816367E-04
(PID.TID 0000.0001) %MON dynstat_wvel_mean            =   1.4530809438619E-22
(PID.TID 0000.0001) %MON dynstat_wvel_sd              =   2.4008290989198E-05
(PID.TID 0000.0001) %MON dynstat_wvel_del2            =   9.4737044802686E-06
(PID.TID 0000.0001) %MON dynstat_theta_max            =   2.9736868462222E+01
(PID.TID 0000.0001) %MON dynstat_theta_min            =  -1.9348239557108E+00
(PID.TID 0000.0001) %MON dynstat_theta_mean           =   3.5905542034855E+00
(PID.TID 0000.0001) %MON dynstat_theta_sd             =   4.3373532508515E+00
(PID.TID 0000.0001) %MON dynstat_theta_del2           =   1.2883322178543E-01
(PID.TID 0000.0001) %MON dynstat_salt_max             =   3.7393953850710E+01
(PID.TID 0000.0001) %MON dynstat_salt_min             =   2.9768491890363E+01
(PID.TID 0000.0001) %MON dynstat_salt_mean            =   3.4716039321154E+01
(PID.TID 0000.0001) %MON dynstat_salt_sd              =   2.9391150500754E-01
(PID.TID 0000.0001) %MON dynstat_salt_del2            =   2.3472688628302E-02
(PID.TID 0000.0001) %MON advcfl_uvel_max              =   3.0973447933016E-02
(PID.TID 0000.0001) %MON advcfl_vvel_max              =   1.7687495833806E-02
(PID.TID 0000.0001) %MON advcfl_wvel_max              =   1.4948248482805E-01
(PID.TID 0000.0001) %MON advcfl_W_hf_max              =   1.4183750559993E-01
(PID.TID 0000.0001) %MON pe_b_mean                    =   2.4693229622538E-04
(PID.TID 0000.0001) %MON ke_max                       =   1.9260777921083E-02
(PID.TID 0000.0001) %MON ke_mean                      =   2.7359552513678E-04
(PID.TID 0000.0001) %MON ke_vol                       =   1.3226782436723E+18
(PID.TID 0000.0001) %MON vort_r_min                   =  -9.7760246295751E-07
(PID.TID 0000.0001) %MON vort_r_max                   =   6.7626115787713E-07
(PID.TID 0000.0001) %MON vort_a_mean                  =  -2.5205767949217E-05
(PID.TID 0000.0001) %MON vort_a_sd                    =   7.3403484999771E-05
(PID.TID 0000.0001) %MON vort_p_mean                  =  -3.1758667737784E-05
(PID.TID 0000.0001) %MON vort_p_sd                    =   1.3126279165239E-04
(PID.TID 0000.0001) %MON surfExpan_theta_mean         =   1.5445178279783E-05
(PID.TID 0000.0001) %MON surfExpan_salt_mean          =   1.0906360556773E-06
(PID.TID 0000.0001) // =======================================================
(PID.TID 0000.0001) // End MONITOR dynamic field statistics
(PID.TID 0000.0001) // =======================================================
time,SST,SSS,fu,fv,Q,E-P,i0,i1,a,b =   3.2832E+06 -1.8412E-01  3.4490E+01 -1.9381E-02 -2.6880E-02  2.4638E+02  0.0000E+00     1     2  7.6667E-01  2.3333E-01
time,fu0,fu1,fu =   3.2832E+06 -3.5633E-02 -1.4435E-02 -1.9381E-02  7.6667E-01  2.3333E-01
 cg2d: Sum(rhs),rhsMax =  -8.98586760555986E-14  8.12844776506082E+00
(PID.TID 0000.0001)                    cg2d_init_res =    4.89632226905567E-01
(PID.TID 0000.0001)                       cg2d_iters =    24
(PID.TID 0000.0001)                         cg2d_res =    9.78425682195886E-14
(PID.TID 0000.0001) // =======================================================
(PID.TID 0000.0001) // Begin MONITOR dynamic field statistics
(PID.TID 0000.0001) // =======================================================
(PID.TID 0000.0001) %MON time_tsnumber                =                    77
(PID.TID 0000.0001) %MON time_secondsf                =   3.3264000000000E+06
(PID.TID 0000.0001) %MON dynstat_eta_max              =   8.9505842488443E-01
(PID.TID 0000.0001) %MON dynstat_eta_min              =  -1.3333011142584E+00
(PID.TID 0000.0001) %MON dynstat_eta_mean             =  -7.3254692515588E-17
(PID.TID 0000.0001) %MON dynstat_eta_sd               =   4.4117101920771E-01
(PID.TID 0000.0001) %MON dynstat_eta_del2             =   1.9026924944842E-02
(PID.TID 0000.0001) %MON dynstat_uvel_max             =   2.0684506182906E-01
(PID.TID 0000.0001) %MON dynstat_uvel_min             =  -1.6427585153907E-01
(PID.TID 0000.0001) %MON dynstat_uvel_mean            =   7.0387398739505E-04
(PID.TID 0000.0001) %MON dynstat_uvel_sd              =   1.8870469890117E-02
(PID.TID 0000.0001) %MON dynstat_uvel_del2            =   5.0190582246978E-03
(PID.TID 0000.0001) %MON dynstat_vvel_max             =   1.8057911919551E-01
(PID.TID 0000.0001) %MON dynstat_vvel_min             =  -1.5651899881095E-01
(PID.TID 0000.0001) %MON dynstat_vvel_mean            =  -1.4968668040882E-03
(PID.TID 0000.0001) %MON dynstat_vvel_sd              =   1.5504003968328E-02
(PID.TID 0000.0001) %MON dynstat_vvel_del2            =   4.6180925996860E-03
(PID.TID 0000.0001) %MON dynstat_wvel_max             =   3.7814228885468E-04
(PID.TID 0000.0001) %MON dynstat_wvel_min             =  -2.4898929671735E-04
(PID.TID 0000.0001) %MON dynstat_wvel_mean            =  -8.4549540828394E-23
(PID.TID 0000.0001) %MON dynstat_wvel_sd              =   2.3818377479174E-05
(PID.TID 0000.0001) %MON dynstat_wvel_del2            =   9.4083149905802E-06
(PID.TID 0000.0001) %MON dynstat_theta_max            =   2.9742625447118E+01
(PID.TID 0000.0001) %MON dynstat_theta_min            =  -1.9305256151656E+00
(PID.TID 0000.0001) %MON dynstat_theta_mean           =   3.5904285083332E+00
(PID.TID 0000.0001) %MON dynstat_theta_sd             =   4.3370271825913E+00
(PID.TID 0000.0001) %MON dynstat_theta_del2           =   1.2877894135311E-01
(PID.TID 0000.0001) %MON dynstat_salt_max             =   3.7394128529416E+01
(PID.TID 0000.0001) %MON dynstat_salt_min             =   2.9766512113688E+01
(PID.TID 0000.0001) %MON dynstat_salt_mean            =   3.4716028531998E+01
(PID.TID 0000.0001) %MON dynstat_salt_sd              =   2.9389299189554E-01
(PID.TID 0000.0001) %MON dynstat_salt_del2            =   2.3452086801478E-02
(PID.TID 0000.0001) %MON advcfl_uvel_max              =   3.0932117452916E-02
(PID.TID 0000.0001) %MON advcfl_vvel_max              =   1.7541813359403E-02
(PID.TID 0000.0001) %MON advcfl_wvel_max              =   1.5284095648515E-01
(PID.TID 0000.0001) %MON advcfl_W_hf_max              =   1.4485349706870E-01
(PID.TID 0000.0001) %MON pe_b_mean                    =   2.4905493487757E-04
(PID.TID 0000.0001) %MON ke_max                       =   1.9356942023328E-02
(PID.TID 0000.0001) %MON ke_mean                      =   2.7092466324849E-04
(PID.TID 0000.0001) %MON ke_vol                       =   1.3226782436723E+18
(PID.TID 0000.0001) %MON vort_r_min                   =  -9.5861657725640E-07
(PID.TID 0000.0001) %MON vort_r_max                   =   6.8446295234260E-07
(PID.TID 0000.0001) %MON vort_a_mean                  =  -2.5205767928655E-05
(PID.TID 0000.0001) %MON vort_a_sd                    =   7.3403491778400E-05
(PID.TID 0000.0001) %MON vort_p_mean                  =  -3.1758667711876E-05
(PID.TID 0000.0001) %MON vort_p_sd                    =   1.3126278669254E-04
(PID.TID 0000.0001) %MON surfExpan_theta_mean         =   1.5331040881220E-05
(PID.TID 0000.0001) %MON surfExpan_salt_mean          =   9.9486204021562E-07
(PID.TID 0000.0001) // =======================================================
(PID.TID 0000.0001) // End MONITOR dynamic field statistics
(PID.TID 0000.0001) // =======================================================
time,SST,SSS,fu,fv,Q,E-P,i0,i1,a,b =   3.3264E+06 -2.0896E-01  3.4485E+01 -1.9028E-02 -2.6220E-02  2.4596E+02  0.0000E+00     1     2  7.8333E-01  2.1667E-01
time,fu0,fu1,fu =   3.3264E+06 -3.5633E-02 -1.4435E-02 -1.9028E-02  7.8333E-01  2.1667E-01
 cg2d: Sum(rhs),rhsMax =  -1.04513619980651E-13  8.77420727303612E+00
(PID.TID 0000.0001)                    cg2d_init_res =    4.33287773360027E-01
(PID.TID 0000.0001)                       cg2d_iters =    24
(PID.TID 0000.0001)                         cg2d_res =    8.72298380906462E-14
(PID.TID 0000.0001) // =======================================================
(PID.TID 0000.0001) // Begin MONITOR dynamic field statistics
(PID.TID 0000.0001) // =======================================================
(PID.TID 0000.0001) %MON time_tsnumber                =                    78
(PID.TID 0000.0001) %MON time_secondsf                =   3.3696000000000E+06
(PID.TID 0000.0001) %MON dynstat_eta_max              =   9.6652352508847E-01
(PID.TID 0000.0001) %MON dynstat_eta_min              =  -1.3167805893113E+00
(PID.TID 0000.0001) %MON dynstat_eta_mean             =   8.0900165159020E-17
(PID.TID 0000.0001) %MON dynstat_eta_sd               =   4.4307082124077E-01
(PID.TID 0000.0001) %MON dynstat_eta_del2             =   1.9015013532655E-02
(PID.TID 0000.0001) %MON dynstat_uvel_max             =   2.1007661718000E-01
(PID.TID 0000.0001) %MON dynstat_uvel_min             =  -1.6301500510924E-01
(PID.TID 0000.0001) %MON dynstat_uvel_mean            =   7.4880298933398E-04
(PID.TID 0000.0001) %MON dynstat_uvel_sd              =   1.8694753138382E-02
(PID.TID 0000.0001) %MON dynstat_uvel_del2            =   5.0044115884847E-03
(PID.TID 0000.0001) %MON dynstat_vvel_max             =   1.7868895367901E-01
(PID.TID 0000.0001) %MON dynstat_vvel_min             =  -1.5629922946015E-01
(PID.TID 0000.0001) %MON dynstat_vvel_mean            =  -1.3998100448142E-03
(PID.TID 0000.0001) %MON dynstat_vvel_sd              =   1.5499328216529E-02
(PID.TID 0000.0001) %MON dynstat_vvel_del2            =   4.6065307119052E-03
(PID.TID 0000.0001) %MON dynstat_wvel_max             =   3.7946198276674E-04
(PID.TID 0000.0001) %MON dynstat_wvel_min             =  -2.4841895865349E-04
(PID.TID 0000.0001) %MON dynstat_wvel_mean            =   2.0323091405718E-22
(PID.TID 0000.0001) %MON dynstat_wvel_sd              =   2.3623657782722E-05
(PID.TID 0000.0001) %MON dynstat_wvel_del2            =   9.3412283128589E-06
(PID.TID 0000.0001) %MON dynstat_theta_max            =   2.9748481025946E+01
(PID.TID 0000.0001) %MON dynstat_theta_min            =  -1.9305107036469E+00
(PID.TID 0000.0001) %MON dynstat_theta_mean           =   3.5903050568087E+00
(PID.TID 0000.0001) %MON dynstat_theta_sd             =   4.3367135625285E+00
(PID.TID 0000.0001) %MON dynstat_theta_del2           =   1.2873693648101E-01
(PID.TID 0000.0001) %MON dynstat_salt_max             =   3.7394263814827E+01
(PID.TID 0000.0001) %MON dynstat_salt_min             =   2.9764529866144E+01
(PID.TID 0000.0001) %MON dynstat_salt_mean            =   3.4716019047937E+01
(PID.TID 0000.0001) %MON dynstat_salt_sd              =   2.9387391116792E-01
(PID.TID 0000.0001) %MON dynstat_salt_del2            =   2.3429190654968E-02
(PID.TID 0000.0001) %MON advcfl_uvel_max              =   3.0885853598428E-02
(PID.TID 0000.0001) %MON advcfl_vvel_max              =   1.7358198936781E-02
(PID.TID 0000.0001) %MON advcfl_wvel_max              =   1.5144801447518E-01
(PID.TID 0000.0001) %MON advcfl_W_hf_max              =   1.4346774700112E-01
(PID.TID 0000.0001) %MON pe_b_mean                    =   2.5120454950771E-04
(PID.TID 0000.0001) %MON ke_max                       =   1.9614075751080E-02
(PID.TID 0000.0001) %MON ke_mean                      =   2.6776415651631E-04
(PID.TID 0000.0001) %MON ke_vol                       =   1.3226782436723E+18
(PID.TID 0000.0001) %MON vort_r_min                   =  -9.3905046482073E-07
(PID.TID 0000.0001) %MON vort_r_max                   =   6.9230696077242E-07
(PID.TID 0000.0001) %MON vort_a_mean                  =  -2.5205767912653E-05
(PID.TID 0000.0001) %MON vort_a_sd                    =   7.3403497773778E-05
(PID.TID 0000.0001) %MON vort_p_mean                  =  -3.1758667691714E-05
(PID.TID 0000.0001) %MON vort_p_sd                    =   1.3126278373283E-04
(PID.TID 0000.0001) %MON surfExpan_theta_mean         =   1.5175530041273E-05
(PID.TID 0000.0001) %MON surfExpan_salt_mean          =   8.8639044638529E-07
(PID.TID 0000.0001) // =======================================================
(PID.TID 0000.0001) // End MONITOR dynamic field statistics
(PID.TID 0000.0001) // =======================================================
(PID.TID 0000.0001)  MDS_WRITE_RL_VEC: irec =  00000014   00066240
(PID.TID 0000.0001)  MDS_WRITE_RL_VEC: irec =  00000014   00066240
(PID.TID 0000.0001)  MDS_WRITE_RL_VEC: irec =  00000014   00066240
(PID.TID 0000.0001)  MDS_WRITE_RL_VEC: irec =  00000014   00066240
(PID.TID 0000.0001)  MDS_WRITE_RL_VEC: irec =  00000014   00066240
(PID.TID 0000.0001)  MDS_WRITE_RL_VEC: irec =  00000014   00066240
(PID.TID 0000.0001)  MDS_WRITE_RL_VEC: irec =  00000014   00066240
(PID.TID 0000.0001)  MDS_WRITE_RL_VEC: irec =  00000014   00066240
(PID.TID 0000.0001)  MDS_WRITE_RL_VEC: irec =  00000014   00066240
(PID.TID 0000.0001)  MDS_WRITE_RL_VEC: irec =  00000014   00066240
(PID.TID 0000.0001)  MDS_WRITE_RL_VEC: irec =  00000014   00066240
(PID.TID 0000.0001)  MDS_WRITE_RL_VEC: irec =  00000014   00004416
(PID.TID 0000.0001)  MDS_WRITE_RL_VEC: irec =  00000014   00066240
(PID.TID 0000.0001)  MDS_WRITE_RL_VEC: irec =  00000014   00004416
(PID.TID 0000.0001)  MDS_WRITE_RL_VEC: irec =  00000014   00004416
(PID.TID 0000.0001)  MDS_WRITE_RL_VEC: irec =  00000014   00004416
(PID.TID 0000.0001)  MDS_WRITE_RL_VEC: irec =  00000014   00004416
(PID.TID 0000.0001)  MDS_WRITE_RL_VEC: irec =  00000014   00004416
(PID.TID 0000.0001)  MDS_WRITE_RL_VEC: irec =  00000014   00004416
(PID.TID 0000.0001)  MDS_WRITE_RL_VEC: irec =  00000014   00004416
(PID.TID 0000.0001)  MDS_WRITE_RL_VEC: irec =  00000014   00004416
(PID.TID 0000.0001)  MDS_WRITE_RL_VEC: irec =  00000014   00004416
(PID.TID 0000.0001)  MDS_WRITE_RL_VEC: irec =  00000014   00004416
(PID.TID 0000.0001)  MDS_WRITE_RL_VEC: irec =  00000014   00004416
(PID.TID 0000.0001)  MDS_WRITE_RL_VEC: irec =  00000014   00004416
(PID.TID 0000.0001)  MDS_WRITE_RL_VEC: irec =  00000014   00004416
(PID.TID 0000.0001)  MDS_WRITE_RL_VEC: irec =  00000014   00004416
(PID.TID 0000.0001)  MDS_WRITE_RL_VEC: irec =  00000014   00004416
(PID.TID 0000.0001)  MDS_WRITE_RL_VEC: irec =  00000014   00004416
(PID.TID 0000.0001)  MDS_WRITE_RL_VEC: irec =  00000014   00004416
(PID.TID 0000.0001)  MDS_WRITE_RL_VEC: irec =  00000014   00004416
time,SST,SSS,fu,fv,Q,E-P,i0,i1,a,b =   3.3696E+06 -2.3380E-01  3.4480E+01 -1.8674E-02 -2.5560E-02  2.4554E+02  0.0000E+00     1     2  8.0000E-01  2.0000E-01
time,fu0,fu1,fu =   3.3696E+06 -3.5633E-02 -1.4435E-02 -1.8674E-02  8.0000E-01  2.0000E-01
 cg2d: Sum(rhs),rhsMax =   3.15442116871623E-14  9.32820152622927E+00
(PID.TID 0000.0001)                    cg2d_init_res =    3.86634412787511E-01
(PID.TID 0000.0001)                       cg2d_iters =    24
(PID.TID 0000.0001)                         cg2d_res =    7.70212412982158E-14
(PID.TID 0000.0001) // =======================================================
(PID.TID 0000.0001) // Begin MONITOR dynamic field statistics
(PID.TID 0000.0001) // =======================================================
(PID.TID 0000.0001) %MON time_tsnumber                =                    79
(PID.TID 0000.0001) %MON time_secondsf                =   3.4128000000000E+06
(PID.TID 0000.0001) %MON dynstat_eta_max              =   1.0307368447965E+00
(PID.TID 0000.0001) %MON dynstat_eta_min              =  -1.3023623260406E+00
(PID.TID 0000.0001) %MON dynstat_eta_mean             =  -1.3384955617327E-16
(PID.TID 0000.0001) %MON dynstat_eta_sd               =   4.4495189604964E-01
(PID.TID 0000.0001) %MON dynstat_eta_del2             =   1.9047063230925E-02
(PID.TID 0000.0001) %MON dynstat_uvel_max             =   2.1254822461955E-01
(PID.TID 0000.0001) %MON dynstat_uvel_min             =  -1.6165244893002E-01
(PID.TID 0000.0001) %MON dynstat_uvel_mean            =   7.9020770563686E-04
(PID.TID 0000.0001) %MON dynstat_uvel_sd              =   1.8500242170107E-02
(PID.TID 0000.0001) %MON dynstat_uvel_del2            =   4.9898267923198E-03
(PID.TID 0000.0001) %MON dynstat_vvel_max             =   1.7863438846892E-01
(PID.TID 0000.0001) %MON dynstat_vvel_min             =  -1.5592505883699E-01
(PID.TID 0000.0001) %MON dynstat_vvel_mean            =  -1.3030984185968E-03
(PID.TID 0000.0001) %MON dynstat_vvel_sd              =   1.5485759068385E-02
(PID.TID 0000.0001) %MON dynstat_vvel_del2            =   4.5935394999108E-03
(PID.TID 0000.0001) %MON dynstat_wvel_max             =   3.8068756339893E-04
(PID.TID 0000.0001) %MON dynstat_wvel_min             =  -2.4737159810038E-04
(PID.TID 0000.0001) %MON dynstat_wvel_mean            =   1.1095322057017E-22
(PID.TID 0000.0001) %MON dynstat_wvel_sd              =   2.3428769160050E-05
(PID.TID 0000.0001) %MON dynstat_wvel_del2            =   9.2754122360773E-06
(PID.TID 0000.0001) %MON dynstat_theta_max            =   2.9754335886214E+01
(PID.TID 0000.0001) %MON dynstat_theta_min            =  -1.9305282803803E+00
(PID.TID 0000.0001) %MON dynstat_theta_mean           =   3.5901842970111E+00
(PID.TID 0000.0001) %MON dynstat_theta_sd             =   4.3364137370896E+00
(PID.TID 0000.0001) %MON dynstat_theta_del2           =   1.2869872649336E-01
(PID.TID 0000.0001) %MON dynstat_salt_max             =   3.7394356928009E+01
(PID.TID 0000.0001) %MON dynstat_salt_min             =   2.9762549030329E+01
(PID.TID 0000.0001) %MON dynstat_salt_mean            =   3.4716010940493E+01
(PID.TID 0000.0001) %MON dynstat_salt_sd              =   2.9385492957795E-01
(PID.TID 0000.0001) %MON dynstat_salt_del2            =   2.3406082557881E-02
(PID.TID 0000.0001) %MON advcfl_uvel_max              =   3.0835699965356E-02
(PID.TID 0000.0001) %MON advcfl_vvel_max              =   1.7352898364181E-02
(PID.TID 0000.0001) %MON advcfl_wvel_max              =   1.4562635368982E-01
(PID.TID 0000.0001) %MON advcfl_W_hf_max              =   1.3797978660859E-01
(PID.TID 0000.0001) %MON pe_b_mean                    =   2.5334207520054E-04
(PID.TID 0000.0001) %MON ke_max                       =   2.0035380520081E-02
(PID.TID 0000.0001) %MON ke_mean                      =   2.6420010208712E-04
(PID.TID 0000.0001) %MON ke_vol                       =   1.3226782436723E+18
(PID.TID 0000.0001) %MON vort_r_min                   =  -9.1909171667205E-07
(PID.TID 0000.0001) %MON vort_r_max                   =   6.9963787786982E-07
(PID.TID 0000.0001) %MON vort_a_mean                  =  -2.5205767901430E-05
(PID.TID 0000.0001) %MON vort_a_sd                    =   7.3403502988399E-05
(PID.TID 0000.0001) %MON vort_p_mean                  =  -3.1758667677573E-05
(PID.TID 0000.0001) %MON vort_p_sd                    =   1.3126278192647E-04
(PID.TID 0000.0001) %MON surfExpan_theta_mean         =   1.4981075650444E-05
(PID.TID 0000.0001) %MON surfExpan_salt_mean          =   7.6923310281316E-07
(PID.TID 0000.0001) // =======================================================
(PID.TID 0000.0001) // End MONITOR dynamic field statistics
(PID.TID 0000.0001) // =======================================================
time,SST,SSS,fu,fv,Q,E-P,i0,i1,a,b =   3.4128E+06 -2.5864E-01  3.4475E+01 -1.8321E-02 -2.4899E-02  2.4512E+02  0.0000E+00     1     2  8.1667E-01  1.8333E-01
time,fu0,fu1,fu =   3.4128E+06 -3.5633E-02 -1.4435E-02 -1.8321E-02  8.1667E-01  1.8333E-01
 cg2d: Sum(rhs),rhsMax =   1.65423230669148E-13  9.78281000944755E+00
(PID.TID 0000.0001)                    cg2d_init_res =    3.48296791320533E-01
(PID.TID 0000.0001)                       cg2d_iters =    24
(PID.TID 0000.0001)                         cg2d_res =    5.94647986456955E-14
(PID.TID 0000.0001) // =======================================================
(PID.TID 0000.0001) // Begin MONITOR dynamic field statistics
(PID.TID 0000.0001) // =======================================================
(PID.TID 0000.0001) %MON time_tsnumber                =                    80
(PID.TID 0000.0001) %MON time_secondsf                =   3.4560000000000E+06
(PID.TID 0000.0001) %MON dynstat_eta_max              =   1.0839609017450E+00
(PID.TID 0000.0001) %MON dynstat_eta_min              =  -1.2907548815616E+00
(PID.TID 0000.0001) %MON dynstat_eta_mean             =  -3.2175099994053E-17
(PID.TID 0000.0001) %MON dynstat_eta_sd               =   4.4678059463846E-01
(PID.TID 0000.0001) %MON dynstat_eta_del2             =   1.9115343428735E-02
(PID.TID 0000.0001) %MON dynstat_uvel_max             =   2.1424142226971E-01
(PID.TID 0000.0001) %MON dynstat_uvel_min             =  -1.6019545934317E-01
(PID.TID 0000.0001) %MON dynstat_uvel_mean            =   8.2806984712660E-04
(PID.TID 0000.0001) %MON dynstat_uvel_sd              =   1.8290736757251E-02
(PID.TID 0000.0001) %MON dynstat_uvel_del2            =   4.9755986234466E-03
(PID.TID 0000.0001) %MON dynstat_vvel_max             =   1.7948458103662E-01
(PID.TID 0000.0001) %MON dynstat_vvel_min             =  -1.5540292974963E-01
(PID.TID 0000.0001) %MON dynstat_vvel_mean            =  -1.2074593757002E-03
(PID.TID 0000.0001) %MON dynstat_vvel_sd              =   1.5464503920505E-02
(PID.TID 0000.0001) %MON dynstat_vvel_del2            =   4.5789297312466E-03
(PID.TID 0000.0001) %MON dynstat_wvel_max             =   3.8182716149700E-04
(PID.TID 0000.0001) %MON dynstat_wvel_min             =  -2.4589154386451E-04
(PID.TID 0000.0001) %MON dynstat_wvel_mean            =   7.8934432030998E-22
(PID.TID 0000.0001) %MON dynstat_wvel_sd              =   2.3238313259404E-05
(PID.TID 0000.0001) %MON dynstat_wvel_del2            =   9.2118781662796E-06
(PID.TID 0000.0001) %MON dynstat_theta_max            =   2.9760095384110E+01
(PID.TID 0000.0001) %MON dynstat_theta_min            =  -1.9305858056816E+00
(PID.TID 0000.0001) %MON dynstat_theta_mean           =   3.5900666340148E+00
(PID.TID 0000.0001) %MON dynstat_theta_sd             =   4.3361283974631E+00
(PID.TID 0000.0001) %MON dynstat_theta_del2           =   1.2865461436123E-01
(PID.TID 0000.0001) %MON dynstat_salt_max             =   3.7394406143836E+01
(PID.TID 0000.0001) %MON dynstat_salt_min             =   2.9760572584387E+01
(PID.TID 0000.0001) %MON dynstat_salt_mean            =   3.4716004236342E+01
(PID.TID 0000.0001) %MON dynstat_salt_sd              =   2.9383613494876E-01
(PID.TID 0000.0001) %MON dynstat_salt_del2            =   2.3384742228479E-02
(PID.TID 0000.0001) %MON advcfl_uvel_max              =   3.0782515250257E-02
(PID.TID 0000.0001) %MON advcfl_vvel_max              =   1.7435487754408E-02
(PID.TID 0000.0001) %MON advcfl_wvel_max              =   1.3584353784531E-01
(PID.TID 0000.0001) %MON advcfl_W_hf_max              =   1.2882317687305E-01
(PID.TID 0000.0001) %MON pe_b_mean                    =   2.5542876513223E-04
(PID.TID 0000.0001) %MON ke_max                       =   2.0392660638801E-02
(PID.TID 0000.0001) %MON ke_mean                      =   2.6032298533732E-04
(PID.TID 0000.0001) %MON ke_vol                       =   1.3226782436723E+18
(PID.TID 0000.0001) %MON vort_r_min                   =  -8.9894464411091E-07
(PID.TID 0000.0001) %MON vort_r_max                   =   7.0631083807920E-07
(PID.TID 0000.0001) %MON vort_a_mean                  =  -2.5205767895108E-05
(PID.TID 0000.0001) %MON vort_a_sd                    =   7.3403507413013E-05
(PID.TID 0000.0001) %MON vort_p_mean                  =  -3.1758667669608E-05
(PID.TID 0000.0001) %MON vort_p_sd                    =   1.3126278042242E-04
(PID.TID 0000.0001) %MON surfExpan_theta_mean         =   1.4749037589993E-05
(PID.TID 0000.0001) %MON surfExpan_salt_mean          =   6.4735040960549E-07
(PID.TID 0000.0001) // =======================================================
(PID.TID 0000.0001) // End MONITOR dynamic field statistics
(PID.TID 0000.0001) // =======================================================
time,SST,SSS,fu,fv,Q,E-P,i0,i1,a,b =   3.4560E+06 -2.8348E-01  3.4470E+01 -1.7968E-02 -2.4239E-02  2.4470E+02  0.0000E+00     1     2  8.3333E-01  1.6667E-01
time,fu0,fu1,fu =   3.4560E+06 -3.5633E-02 -1.4435E-02 -1.7968E-02  8.3333E-01  1.6667E-01
 cg2d: Sum(rhs),rhsMax =   8.86374307285109E-14  1.01326134749906E+01
(PID.TID 0000.0001)                    cg2d_init_res =    3.17498451819598E-01
(PID.TID 0000.0001)                       cg2d_iters =    23
(PID.TID 0000.0001)                         cg2d_res =    7.55904640275585E-14
(PID.TID 0000.0001) // =======================================================
(PID.TID 0000.0001) // Begin MONITOR dynamic field statistics
(PID.TID 0000.0001) // =======================================================
(PID.TID 0000.0001) %MON time_tsnumber                =                    81
(PID.TID 0000.0001) %MON time_secondsf                =   3.4992000000000E+06
(PID.TID 0000.0001) %MON dynstat_eta_max              =   1.1252265796174E+00
(PID.TID 0000.0001) %MON dynstat_eta_min              =  -1.2824486320223E+00
(PID.TID 0000.0001) %MON dynstat_eta_mean             =  -9.3396533621311E-18
(PID.TID 0000.0001) %MON dynstat_eta_sd               =   4.4852707965246E-01
(PID.TID 0000.0001) %MON dynstat_eta_del2             =   1.9197130515978E-02
(PID.TID 0000.0001) %MON dynstat_uvel_max             =   2.1514660209911E-01
(PID.TID 0000.0001) %MON dynstat_uvel_min             =  -1.5865080640519E-01
(PID.TID 0000.0001) %MON dynstat_uvel_mean            =   8.6233964576039E-04
(PID.TID 0000.0001) %MON dynstat_uvel_sd              =   1.8069933019685E-02
(PID.TID 0000.0001) %MON dynstat_uvel_del2            =   4.9627429987565E-03
(PID.TID 0000.0001) %MON dynstat_vvel_max             =   1.8015089447258E-01
(PID.TID 0000.0001) %MON dynstat_vvel_min             =  -1.5473881683906E-01
(PID.TID 0000.0001) %MON dynstat_vvel_mean            =  -1.1133730501750E-03
(PID.TID 0000.0001) %MON dynstat_vvel_sd              =   1.5437039394635E-02
(PID.TID 0000.0001) %MON dynstat_vvel_del2            =   4.5644567335976E-03
(PID.TID 0000.0001) %MON dynstat_wvel_max             =   3.8288764893610E-04
(PID.TID 0000.0001) %MON dynstat_wvel_min             =  -2.4402581338591E-04
(PID.TID 0000.0001) %MON dynstat_wvel_mean            =  -4.5931889173060E-22
(PID.TID 0000.0001) %MON dynstat_wvel_sd              =   2.3056461721703E-05
(PID.TID 0000.0001) %MON dynstat_wvel_del2            =   9.1480048242593E-06
(PID.TID 0000.0001) %MON dynstat_theta_max            =   2.9765672987490E+01
(PID.TID 0000.0001) %MON dynstat_theta_min            =  -1.9306897153174E+00
(PID.TID 0000.0001) %MON dynstat_theta_mean           =   3.5899524400290E+00
(PID.TID 0000.0001) %MON dynstat_theta_sd             =   4.3358584393242E+00
(PID.TID 0000.0001) %MON dynstat_theta_del2           =   1.2863639225286E-01
(PID.TID 0000.0001) %MON dynstat_salt_max             =   3.7394410825411E+01
(PID.TID 0000.0001) %MON dynstat_salt_min             =   2.9758602649927E+01
(PID.TID 0000.0001) %MON dynstat_salt_mean            =   3.4715998919833E+01
(PID.TID 0000.0001) %MON dynstat_salt_sd              =   2.9381775556674E-01
(PID.TID 0000.0001) %MON dynstat_salt_del2            =   2.3360738788444E-02
(PID.TID 0000.0001) %MON advcfl_uvel_max              =   3.0726954064478E-02
(PID.TID 0000.0001) %MON advcfl_vvel_max              =   1.7500214761520E-02
(PID.TID 0000.0001) %MON advcfl_wvel_max              =   1.2268532972655E-01
(PID.TID 0000.0001) %MON advcfl_W_hf_max              =   1.1654078368835E-01
(PID.TID 0000.0001) %MON pe_b_mean                    =   2.5742963281981E-04
(PID.TID 0000.0001) %MON ke_max                       =   2.0721456792919E-02
(PID.TID 0000.0001) %MON ke_mean                      =   2.5622275446922E-04
(PID.TID 0000.0001) %MON ke_vol                       =   1.3226782436723E+18
(PID.TID 0000.0001) %MON vort_r_min                   =  -8.7880432789645E-07
(PID.TID 0000.0001) %MON vort_r_max                   =   7.1219748217476E-07
(PID.TID 0000.0001) %MON vort_a_mean                  =  -2.5205767893744E-05
(PID.TID 0000.0001) %MON vort_a_sd                    =   7.3403511029564E-05
(PID.TID 0000.0001) %MON vort_p_mean                  =  -3.1758667667890E-05
(PID.TID 0000.0001) %MON vort_p_sd                    =   1.3126277840471E-04
(PID.TID 0000.0001) %MON surfExpan_theta_mean         =   1.4481832905853E-05
(PID.TID 0000.0001) %MON surfExpan_salt_mean          =   5.2488033313771E-07
(PID.TID 0000.0001) // =======================================================
(PID.TID 0000.0001) // End MONITOR dynamic field statistics
(PID.TID 0000.0001) // =======================================================
time,SST,SSS,fu,fv,Q,E-P,i0,i1,a,b =   3.4992E+06 -3.0831E-01  3.4465E+01 -1.7614E-02 -2.3579E-02  2.4427E+02  0.0000E+00     1     2  8.5000E-01  1.5000E-01
time,fu0,fu1,fu =   3.4992E+06 -3.5633E-02 -1.4435E-02 -1.7614E-02  8.5000E-01  1.5000E-01
 cg2d: Sum(rhs),rhsMax =  -4.54844495401119E-13  1.03744128804497E+01
(PID.TID 0000.0001)                    cg2d_init_res =    2.93823210923501E-01
(PID.TID 0000.0001)                       cg2d_iters =    24
(PID.TID 0000.0001)                         cg2d_res =    4.30144060569559E-14
(PID.TID 0000.0001) // =======================================================
(PID.TID 0000.0001) // Begin MONITOR dynamic field statistics
(PID.TID 0000.0001) // =======================================================
(PID.TID 0000.0001) %MON time_tsnumber                =                    82
(PID.TID 0000.0001) %MON time_secondsf                =   3.5424000000000E+06
(PID.TID 0000.0001) %MON dynstat_eta_max              =   1.1542049567022E+00
(PID.TID 0000.0001) %MON dynstat_eta_min              =  -1.2777069354579E+00
(PID.TID 0000.0001) %MON dynstat_eta_mean             =   2.9727232635457E-17
(PID.TID 0000.0001) %MON dynstat_eta_sd               =   4.5016759288121E-01
(PID.TID 0000.0001) %MON dynstat_eta_del2             =   1.9248990194996E-02
(PID.TID 0000.0001) %MON dynstat_uvel_max             =   2.1526327356917E-01
(PID.TID 0000.0001) %MON dynstat_uvel_min             =  -1.5702483709613E-01
(PID.TID 0000.0001) %MON dynstat_uvel_mean            =   8.9294680662971E-04
(PID.TID 0000.0001) %MON dynstat_uvel_sd              =   1.7841340514796E-02
(PID.TID 0000.0001) %MON dynstat_uvel_del2            =   4.9512930437762E-03
(PID.TID 0000.0001) %MON dynstat_vvel_max             =   1.8060888644930E-01
(PID.TID 0000.0001) %MON dynstat_vvel_min             =  -1.5393813860946E-01
(PID.TID 0000.0001) %MON dynstat_vvel_mean            =  -1.0210853239726E-03
(PID.TID 0000.0001) %MON dynstat_vvel_sd              =   1.5404939121913E-02
(PID.TID 0000.0001) %MON dynstat_vvel_del2            =   4.5494337919555E-03
(PID.TID 0000.0001) %MON dynstat_wvel_max             =   3.8387406119513E-04
(PID.TID 0000.0001) %MON dynstat_wvel_min             =  -2.4182279274645E-04
(PID.TID 0000.0001) %MON dynstat_wvel_mean            =  -3.0614520234320E-24
(PID.TID 0000.0001) %MON dynstat_wvel_sd              =   2.2886377969278E-05
(PID.TID 0000.0001) %MON dynstat_wvel_del2            =   9.0831306678880E-06
(PID.TID 0000.0001) %MON dynstat_theta_max            =   2.9770992882654E+01
(PID.TID 0000.0001) %MON dynstat_theta_min            =  -1.9308451689046E+00
(PID.TID 0000.0001) %MON dynstat_theta_mean           =   3.5898420918877E+00
(PID.TID 0000.0001) %MON dynstat_theta_sd             =   4.3356040208600E+00
(PID.TID 0000.0001) %MON dynstat_theta_del2           =   1.2862409977279E-01
(PID.TID 0000.0001) %MON dynstat_salt_max             =   3.7394371287692E+01
(PID.TID 0000.0001) %MON dynstat_salt_min             =   2.9756640579851E+01
(PID.TID 0000.0001) %MON dynstat_salt_mean            =   3.4715994934423E+01
(PID.TID 0000.0001) %MON dynstat_salt_sd              =   2.9379998024969E-01
(PID.TID 0000.0001) %MON dynstat_salt_del2            =   2.3340001530900E-02
(PID.TID 0000.0001) %MON advcfl_uvel_max              =   3.0669466357342E-02
(PID.TID 0000.0001) %MON advcfl_vvel_max              =   1.7544705009404E-02
(PID.TID 0000.0001) %MON advcfl_wvel_max              =   1.0682556366991E-01
(PID.TID 0000.0001) %MON advcfl_W_hf_max              =   1.0175685935850E-01
(PID.TID 0000.0001) %MON pe_b_mean                    =   2.5931620360218E-04
(PID.TID 0000.0001) %MON ke_max                       =   2.0940623253128E-02
(PID.TID 0000.0001) %MON ke_mean                      =   2.5198476211790E-04
(PID.TID 0000.0001) %MON ke_vol                       =   1.3226782436723E+18
(PID.TID 0000.0001) %MON vort_r_min                   =  -8.5885135046206E-07
(PID.TID 0000.0001) %MON vort_r_max                   =   7.1718998661908E-07
(PID.TID 0000.0001) %MON vort_a_mean                  =  -2.5205767897221E-05
(PID.TID 0000.0001) %MON vort_a_sd                    =   7.3403513815495E-05
(PID.TID 0000.0001) %MON vort_p_mean                  =  -3.1758667672270E-05
(PID.TID 0000.0001) %MON vort_p_sd                    =   1.3126277501737E-04
(PID.TID 0000.0001) %MON surfExpan_theta_mean         =   1.4181046918594E-05
(PID.TID 0000.0001) %MON surfExpan_salt_mean          =   4.0545452168597E-07
(PID.TID 0000.0001) // =======================================================
(PID.TID 0000.0001) // End MONITOR dynamic field statistics
(PID.TID 0000.0001) // =======================================================
time,SST,SSS,fu,fv,Q,E-P,i0,i1,a,b =   3.5424E+06 -3.3315E-01  3.4460E+01 -1.7261E-02 -2.2918E-02  2.4385E+02  0.0000E+00     1     2  8.6667E-01  1.3333E-01
time,fu0,fu1,fu =   3.5424E+06 -3.5633E-02 -1.4435E-02 -1.7261E-02  8.6667E-01  1.3333E-01
 cg2d: Sum(rhs),rhsMax =  -8.29475377273070E-14  1.05072072836047E+01
(PID.TID 0000.0001)                    cg2d_init_res =    2.77032835226326E-01
(PID.TID 0000.0001)                       cg2d_iters =    24
(PID.TID 0000.0001)                         cg2d_res =    5.23024409505130E-14
(PID.TID 0000.0001) // =======================================================
(PID.TID 0000.0001) // Begin MONITOR dynamic field statistics
(PID.TID 0000.0001) // =======================================================
(PID.TID 0000.0001) %MON time_tsnumber                =                    83
(PID.TID 0000.0001) %MON time_secondsf                =   3.5856000000000E+06
(PID.TID 0000.0001) %MON dynstat_eta_max              =   1.1708212889746E+00
(PID.TID 0000.0001) %MON dynstat_eta_min              =  -1.2765718454980E+00
(PID.TID 0000.0001) %MON dynstat_eta_mean             =  -6.5975365630761E-18
(PID.TID 0000.0001) %MON dynstat_eta_sd               =   4.5168588443433E-01
(PID.TID 0000.0001) %MON dynstat_eta_del2             =   1.9282495127733E-02
(PID.TID 0000.0001) %MON dynstat_uvel_max             =   2.1460011868349E-01
(PID.TID 0000.0001) %MON dynstat_uvel_min             =  -1.5532358672488E-01
(PID.TID 0000.0001) %MON dynstat_uvel_mean            =   9.1982307175579E-04
(PID.TID 0000.0001) %MON dynstat_uvel_sd              =   1.7608236352877E-02
(PID.TID 0000.0001) %MON dynstat_uvel_del2            =   4.9407070027634E-03
(PID.TID 0000.0001) %MON dynstat_vvel_max             =   1.8083996314612E-01
(PID.TID 0000.0001) %MON dynstat_vvel_min             =  -1.5300566367677E-01
(PID.TID 0000.0001) %MON dynstat_vvel_mean            =  -9.3062501973295E-04
(PID.TID 0000.0001) %MON dynstat_vvel_sd              =   1.5369723081563E-02
(PID.TID 0000.0001) %MON dynstat_vvel_del2            =   4.5337286546021E-03
(PID.TID 0000.0001) %MON dynstat_wvel_max             =   3.8478877993171E-04
(PID.TID 0000.0001) %MON dynstat_wvel_min             =  -2.3933113752000E-04
(PID.TID 0000.0001) %MON dynstat_wvel_mean            =  -1.5101170521094E-22
(PID.TID 0000.0001) %MON dynstat_wvel_sd              =   2.2730074899263E-05
(PID.TID 0000.0001) %MON dynstat_wvel_del2            =   9.0223741856803E-06
(PID.TID 0000.0001) %MON dynstat_theta_max            =   2.9775992113104E+01
(PID.TID 0000.0001) %MON dynstat_theta_min            =  -1.9310481149506E+00
(PID.TID 0000.0001) %MON dynstat_theta_mean           =   3.5897359125361E+00
(PID.TID 0000.0001) %MON dynstat_theta_sd             =   4.3353655840532E+00
(PID.TID 0000.0001) %MON dynstat_theta_del2           =   1.2861893063367E-01
(PID.TID 0000.0001) %MON dynstat_salt_max             =   3.7394288645450E+01
(PID.TID 0000.0001) %MON dynstat_salt_min             =   2.9754687076432E+01
(PID.TID 0000.0001) %MON dynstat_salt_mean            =   3.4715992188118E+01
(PID.TID 0000.0001) %MON dynstat_salt_sd              =   2.9378270039275E-01
(PID.TID 0000.0001) %MON dynstat_salt_del2            =   2.3317294175718E-02
(PID.TID 0000.0001) %MON advcfl_uvel_max              =   3.0610329014003E-02
(PID.TID 0000.0001) %MON advcfl_vvel_max              =   1.7567152257489E-02
(PID.TID 0000.0001) %MON advcfl_wvel_max              =   8.8994262557762E-02
(PID.TID 0000.0001) %MON advcfl_W_hf_max              =   8.5147510240352E-02
(PID.TID 0000.0001) %MON pe_b_mean                    =   2.6106835794815E-04
(PID.TID 0000.0001) %MON ke_max                       =   2.1047660676785E-02
(PID.TID 0000.0001) %MON ke_mean                      =   2.4768687873329E-04
(PID.TID 0000.0001) %MON ke_vol                       =   1.3226782436723E+18
(PID.TID 0000.0001) %MON vort_r_min                   =  -8.3924813092395E-07
(PID.TID 0000.0001) %MON vort_r_max                   =   7.2120379281038E-07
(PID.TID 0000.0001) %MON vort_a_mean                  =  -2.5205767904858E-05
(PID.TID 0000.0001) %MON vort_a_sd                    =   7.3403515752814E-05
(PID.TID 0000.0001) %MON vort_p_mean                  =  -3.1758667681892E-05
(PID.TID 0000.0001) %MON vort_p_sd                    =   1.3126276948636E-04
(PID.TID 0000.0001) %MON surfExpan_theta_mean         =   1.3848717550136E-05
(PID.TID 0000.0001) %MON surfExpan_salt_mean          =   2.9237254075730E-07
(PID.TID 0000.0001) // =======================================================
(PID.TID 0000.0001) // End MONITOR dynamic field statistics
(PID.TID 0000.0001) // =======================================================
time,SST,SSS,fu,fv,Q,E-P,i0,i1,a,b =   3.5856E+06 -3.5799E-01  3.4455E+01 -1.6908E-02 -2.2258E-02  2.4343E+02  0.0000E+00     1     2  8.8333E-01  1.1667E-01
time,fu0,fu1,fu =   3.5856E+06 -3.5633E-02 -1.4435E-02 -1.6908E-02  8.8333E-01  1.1667E-01
 cg2d: Sum(rhs),rhsMax =  -2.68007838144513E-13  1.05321350243996E+01
(PID.TID 0000.0001)                    cg2d_init_res =    2.66908362384659E-01
(PID.TID 0000.0001)                       cg2d_iters =    24
(PID.TID 0000.0001)                         cg2d_res =    4.88349851732217E-14
(PID.TID 0000.0001) // =======================================================
(PID.TID 0000.0001) // Begin MONITOR dynamic field statistics
(PID.TID 0000.0001) // =======================================================
(PID.TID 0000.0001) %MON time_tsnumber                =                    84
(PID.TID 0000.0001) %MON time_secondsf                =   3.6288000000000E+06
(PID.TID 0000.0001) %MON dynstat_eta_max              =   1.1752433993427E+00
(PID.TID 0000.0001) %MON dynstat_eta_min              =  -1.2788824552923E+00
(PID.TID 0000.0001) %MON dynstat_eta_mean             =   3.9517582738379E-18
(PID.TID 0000.0001) %MON dynstat_eta_sd               =   4.5307378792830E-01
(PID.TID 0000.0001) %MON dynstat_eta_del2             =   1.9292311096425E-02
(PID.TID 0000.0001) %MON dynstat_uvel_max             =   2.1317488538454E-01
(PID.TID 0000.0001) %MON dynstat_uvel_min             =  -1.5355290826213E-01
(PID.TID 0000.0001) %MON dynstat_uvel_mean            =   9.4291951726198E-04
(PID.TID 0000.0001) %MON dynstat_uvel_sd              =   1.7373650305909E-02
(PID.TID 0000.0001) %MON dynstat_uvel_del2            =   4.9302527005266E-03
(PID.TID 0000.0001) %MON dynstat_vvel_max             =   1.8083168162816E-01
(PID.TID 0000.0001) %MON dynstat_vvel_min             =  -1.5194546598584E-01
(PID.TID 0000.0001) %MON dynstat_vvel_mean            =  -8.4183169064612E-04
(PID.TID 0000.0001) %MON dynstat_vvel_sd              =   1.5332740178129E-02
(PID.TID 0000.0001) %MON dynstat_vvel_del2            =   4.5192284514453E-03
(PID.TID 0000.0001) %MON dynstat_wvel_max             =   3.8563083331648E-04
(PID.TID 0000.0001) %MON dynstat_wvel_min             =  -2.3659898053489E-04
(PID.TID 0000.0001) %MON dynstat_wvel_mean            =  -3.3389182324026E-23
(PID.TID 0000.0001) %MON dynstat_wvel_sd              =   2.2588285904024E-05
(PID.TID 0000.0001) %MON dynstat_wvel_del2            =   8.9669975012041E-06
(PID.TID 0000.0001) %MON dynstat_theta_max            =   2.9780623051612E+01
(PID.TID 0000.0001) %MON dynstat_theta_min            =  -1.9312880733547E+00
(PID.TID 0000.0001) %MON dynstat_theta_mean           =   3.5896342410360E+00
(PID.TID 0000.0001) %MON dynstat_theta_sd             =   4.3351418227560E+00
(PID.TID 0000.0001) %MON dynstat_theta_del2           =   1.2862316256510E-01
(PID.TID 0000.0001) %MON dynstat_salt_max             =   3.7394164667072E+01
(PID.TID 0000.0001) %MON dynstat_salt_min             =   2.9752742329446E+01
(PID.TID 0000.0001) %MON dynstat_salt_mean            =   3.4715990560469E+01
(PID.TID 0000.0001) %MON dynstat_salt_sd              =   2.9376473851282E-01
(PID.TID 0000.0001) %MON dynstat_salt_del2            =   2.3291091895577E-02
(PID.TID 0000.0001) %MON advcfl_uvel_max              =   3.0549687141952E-02
(PID.TID 0000.0001) %MON advcfl_vvel_max              =   1.7566347774428E-02
(PID.TID 0000.0001) %MON advcfl_wvel_max              =   7.1776772730400E-02
(PID.TID 0000.0001) %MON advcfl_W_hf_max              =   6.7411055525046E-02
(PID.TID 0000.0001) %MON pe_b_mean                    =   2.6267520190538E-04
(PID.TID 0000.0001) %MON ke_max                       =   2.1042063750873E-02
(PID.TID 0000.0001) %MON ke_mean                      =   2.4339777898179E-04
(PID.TID 0000.0001) %MON ke_vol                       =   1.3226782436723E+18
(PID.TID 0000.0001) %MON vort_r_min                   =  -8.2013597259796E-07
(PID.TID 0000.0001) %MON vort_r_max                   =   7.2417935365208E-07
(PID.TID 0000.0001) %MON vort_a_mean                  =  -2.5205767917138E-05
(PID.TID 0000.0001) %MON vort_a_sd                    =   7.3403516814825E-05
(PID.TID 0000.0001) %MON vort_p_mean                  =  -3.1758667697365E-05
(PID.TID 0000.0001) %MON vort_p_sd                    =   1.3126276104382E-04
(PID.TID 0000.0001) %MON surfExpan_theta_mean         =   1.3485904989203E-05
(PID.TID 0000.0001) %MON surfExpan_salt_mean          =   1.8835564319230E-07
(PID.TID 0000.0001) // =======================================================
(PID.TID 0000.0001) // End MONITOR dynamic field statistics
(PID.TID 0000.0001) // =======================================================
(PID.TID 0000.0001)  MDS_WRITE_RL_VEC: irec =  00000015   00066240
(PID.TID 0000.0001)  MDS_WRITE_RL_VEC: irec =  00000015   00066240
(PID.TID 0000.0001)  MDS_WRITE_RL_VEC: irec =  00000015   00066240
(PID.TID 0000.0001)  MDS_WRITE_RL_VEC: irec =  00000015   00066240
(PID.TID 0000.0001)  MDS_WRITE_RL_VEC: irec =  00000015   00066240
(PID.TID 0000.0001)  MDS_WRITE_RL_VEC: irec =  00000015   00066240
(PID.TID 0000.0001)  MDS_WRITE_RL_VEC: irec =  00000015   00066240
(PID.TID 0000.0001)  MDS_WRITE_RL_VEC: irec =  00000015   00066240
(PID.TID 0000.0001)  MDS_WRITE_RL_VEC: irec =  00000015   00066240
(PID.TID 0000.0001)  MDS_WRITE_RL_VEC: irec =  00000015   00066240
(PID.TID 0000.0001)  MDS_WRITE_RL_VEC: irec =  00000015   00066240
(PID.TID 0000.0001)  MDS_WRITE_RL_VEC: irec =  00000015   00004416
(PID.TID 0000.0001)  MDS_WRITE_RL_VEC: irec =  00000015   00066240
(PID.TID 0000.0001)  MDS_WRITE_RL_VEC: irec =  00000015   00004416
(PID.TID 0000.0001)  MDS_WRITE_RL_VEC: irec =  00000015   00004416
(PID.TID 0000.0001)  MDS_WRITE_RL_VEC: irec =  00000015   00004416
(PID.TID 0000.0001)  MDS_WRITE_RL_VEC: irec =  00000015   00004416
(PID.TID 0000.0001)  MDS_WRITE_RL_VEC: irec =  00000015   00004416
(PID.TID 0000.0001)  MDS_WRITE_RL_VEC: irec =  00000015   00004416
(PID.TID 0000.0001)  MDS_WRITE_RL_VEC: irec =  00000015   00004416
(PID.TID 0000.0001)  MDS_WRITE_RL_VEC: irec =  00000015   00004416
(PID.TID 0000.0001)  MDS_WRITE_RL_VEC: irec =  00000015   00004416
(PID.TID 0000.0001)  MDS_WRITE_RL_VEC: irec =  00000015   00004416
(PID.TID 0000.0001)  MDS_WRITE_RL_VEC: irec =  00000015   00004416
(PID.TID 0000.0001)  MDS_WRITE_RL_VEC: irec =  00000015   00004416
(PID.TID 0000.0001)  MDS_WRITE_RL_VEC: irec =  00000015   00004416
(PID.TID 0000.0001)  MDS_WRITE_RL_VEC: irec =  00000015   00004416
(PID.TID 0000.0001)  MDS_WRITE_RL_VEC: irec =  00000015   00004416
(PID.TID 0000.0001)  MDS_WRITE_RL_VEC: irec =  00000015   00004416
(PID.TID 0000.0001)  MDS_WRITE_RL_VEC: irec =  00000015   00004416
(PID.TID 0000.0001)  MDS_WRITE_RL_VEC: irec =  00000015   00004416
time,SST,SSS,fu,fv,Q,E-P,i0,i1,a,b =   3.6288E+06 -3.8283E-01  3.4450E+01 -1.6555E-02 -2.1598E-02  2.4301E+02  0.0000E+00     1     2  9.0000E-01  1.0000E-01
time,fu0,fu1,fu =   3.6288E+06 -3.5633E-02 -1.4435E-02 -1.6555E-02  9.0000E-01  1.0000E-01
 cg2d: Sum(rhs),rhsMax =   9.57567358739198E-16  1.04523935198126E+01
(PID.TID 0000.0001)                    cg2d_init_res =    2.63157718476466E-01
(PID.TID 0000.0001)                       cg2d_iters =    24
(PID.TID 0000.0001)                         cg2d_res =    4.56324272000750E-14
(PID.TID 0000.0001) // =======================================================
(PID.TID 0000.0001) // Begin MONITOR dynamic field statistics
(PID.TID 0000.0001) // =======================================================
(PID.TID 0000.0001) %MON time_tsnumber                =                    85
(PID.TID 0000.0001) %MON time_secondsf                =   3.6720000000000E+06
(PID.TID 0000.0001) %MON dynstat_eta_max              =   1.1678666537550E+00
(PID.TID 0000.0001) %MON dynstat_eta_min              =  -1.2843035114750E+00
(PID.TID 0000.0001) %MON dynstat_eta_mean             =  -1.4189685499306E-17
(PID.TID 0000.0001) %MON dynstat_eta_sd               =   4.5433112368268E-01
(PID.TID 0000.0001) %MON dynstat_eta_del2             =   1.9266505738788E-02
(PID.TID 0000.0001) %MON dynstat_uvel_max             =   2.1101423940565E-01
(PID.TID 0000.0001) %MON dynstat_uvel_min             =  -1.5449634864842E-01
(PID.TID 0000.0001) %MON dynstat_uvel_mean            =   9.6222354203171E-04
(PID.TID 0000.0001) %MON dynstat_uvel_sd              =   1.7140381213198E-02
(PID.TID 0000.0001) %MON dynstat_uvel_del2            =   4.9215716303578E-03
(PID.TID 0000.0001) %MON dynstat_vvel_max             =   1.8057779146247E-01
(PID.TID 0000.0001) %MON dynstat_vvel_min             =  -1.5076095505844E-01
(PID.TID 0000.0001) %MON dynstat_vvel_mean            =  -7.5439281339055E-04
(PID.TID 0000.0001) %MON dynstat_vvel_sd              =   1.5295078632285E-02
(PID.TID 0000.0001) %MON dynstat_vvel_del2            =   4.5056878221330E-03
(PID.TID 0000.0001) %MON dynstat_wvel_max             =   3.8639548848895E-04
(PID.TID 0000.0001) %MON dynstat_wvel_min             =  -2.3367293302226E-04
(PID.TID 0000.0001) %MON dynstat_wvel_mean            =   3.3466146451982E-23
(PID.TID 0000.0001) %MON dynstat_wvel_sd              =   2.2460546456791E-05
(PID.TID 0000.0001) %MON dynstat_wvel_del2            =   8.9148178003253E-06
(PID.TID 0000.0001) %MON dynstat_theta_max            =   2.9784854907212E+01
(PID.TID 0000.0001) %MON dynstat_theta_min            =  -1.9315920932088E+00
(PID.TID 0000.0001) %MON dynstat_theta_mean           =   3.5895372706621E+00
(PID.TID 0000.0001) %MON dynstat_theta_sd             =   4.3349347069906E+00
(PID.TID 0000.0001) %MON dynstat_theta_del2           =   1.2863654372381E-01
(PID.TID 0000.0001) %MON dynstat_salt_max             =   3.7394001596879E+01
(PID.TID 0000.0001) %MON dynstat_salt_min             =   2.9750806164070E+01
(PID.TID 0000.0001) %MON dynstat_salt_mean            =   3.4715989907595E+01
(PID.TID 0000.0001) %MON dynstat_salt_sd              =   2.9374806594074E-01
(PID.TID 0000.0001) %MON dynstat_salt_del2            =   2.3268888241014E-02
(PID.TID 0000.0001) %MON advcfl_uvel_max              =   3.0487577704072E-02
(PID.TID 0000.0001) %MON advcfl_vvel_max              =   1.7541684380785E-02
(PID.TID 0000.0001) %MON advcfl_wvel_max              =   6.9970695803594E-02
(PID.TID 0000.0001) %MON advcfl_W_hf_max              =   6.0461807753156E-02
(PID.TID 0000.0001) %MON pe_b_mean                    =   2.6413513714449E-04
(PID.TID 0000.0001) %MON ke_max                       =   2.0925317037799E-02
(PID.TID 0000.0001) %MON ke_mean                      =   2.3917625765471E-04
(PID.TID 0000.0001) %MON ke_vol                       =   1.3226782436723E+18
(PID.TID 0000.0001) %MON vort_r_min                   =  -8.0164246629280E-07
(PID.TID 0000.0001) %MON vort_r_max                   =   7.2608276172558E-07
(PID.TID 0000.0001) %MON vort_a_mean                  =  -2.5205767933787E-05
(PID.TID 0000.0001) %MON vort_a_sd                    =   7.3403516990717E-05
(PID.TID 0000.0001) %MON vort_p_mean                  =  -3.1758667718343E-05
(PID.TID 0000.0001) %MON vort_p_sd                    =   1.3126274906600E-04
(PID.TID 0000.0001) %MON surfExpan_theta_mean         =   1.3095947634474E-05
(PID.TID 0000.0001) %MON surfExpan_salt_mean          =   9.5615817031562E-08
(PID.TID 0000.0001) // =======================================================
(PID.TID 0000.0001) // End MONITOR dynamic field statistics
(PID.TID 0000.0001) // =======================================================
time,SST,SSS,fu,fv,Q,E-P,i0,i1,a,b =   3.6720E+06 -4.0767E-01  3.4446E+01 -1.6201E-02 -2.0937E-02  2.4259E+02  0.0000E+00     1     2  9.1667E-01  8.3333E-02
time,fu0,fu1,fu =   3.6720E+06 -3.5633E-02 -1.4435E-02 -1.6201E-02  9.1667E-01  8.3333E-02
 cg2d: Sum(rhs),rhsMax =   1.92901250528621E-14  1.02769511075740E+01
(PID.TID 0000.0001)                    cg2d_init_res =    2.65257330899552E-01
(PID.TID 0000.0001)                       cg2d_iters =    24
(PID.TID 0000.0001)                         cg2d_res =    4.32173512419474E-14
(PID.TID 0000.0001) // =======================================================
(PID.TID 0000.0001) // Begin MONITOR dynamic field statistics
(PID.TID 0000.0001) // =======================================================
(PID.TID 0000.0001) %MON time_tsnumber                =                    86
(PID.TID 0000.0001) %MON time_secondsf                =   3.7152000000000E+06
(PID.TID 0000.0001) %MON dynstat_eta_max              =   1.1492957358898E+00
(PID.TID 0000.0001) %MON dynstat_eta_min              =  -1.2923596577296E+00
(PID.TID 0000.0001) %MON dynstat_eta_mean             =   2.0511025296493E-16
(PID.TID 0000.0001) %MON dynstat_eta_sd               =   4.5546487600304E-01
(PID.TID 0000.0001) %MON dynstat_eta_del2             =   1.9243647429077E-02
(PID.TID 0000.0001) %MON dynstat_uvel_max             =   2.0815362664292E-01
(PID.TID 0000.0001) %MON dynstat_uvel_min             =  -1.5563922738506E-01
(PID.TID 0000.0001) %MON dynstat_uvel_mean            =   9.7775166978834E-04
(PID.TID 0000.0001) %MON dynstat_uvel_sd              =   1.6911036277075E-02
(PID.TID 0000.0001) %MON dynstat_uvel_del2            =   4.9150889828781E-03
(PID.TID 0000.0001) %MON dynstat_vvel_max             =   1.8007805253103E-01
(PID.TID 0000.0001) %MON dynstat_vvel_min             =  -1.4989384048031E-01
(PID.TID 0000.0001) %MON dynstat_vvel_mean            =  -6.6786307058984E-04
(PID.TID 0000.0001) %MON dynstat_vvel_sd              =   1.5257512757482E-02
(PID.TID 0000.0001) %MON dynstat_vvel_del2            =   4.4921053902887E-03
(PID.TID 0000.0001) %MON dynstat_wvel_max             =   3.8707411733903E-04
(PID.TID 0000.0001) %MON dynstat_wvel_min             =  -2.3059729277605E-04
(PID.TID 0000.0001) %MON dynstat_wvel_mean            =  -4.4492422547292E-22
(PID.TID 0000.0001) %MON dynstat_wvel_sd              =   2.2345328700055E-05
(PID.TID 0000.0001) %MON dynstat_wvel_del2            =   8.8664178309538E-06
(PID.TID 0000.0001) %MON dynstat_theta_max            =   2.9788674207624E+01
(PID.TID 0000.0001) %MON dynstat_theta_min            =  -1.9319422876476E+00
(PID.TID 0000.0001) %MON dynstat_theta_mean           =   3.5894452828962E+00
(PID.TID 0000.0001) %MON dynstat_theta_sd             =   4.3347431488537E+00
(PID.TID 0000.0001) %MON dynstat_theta_del2           =   1.2864714125986E-01
(PID.TID 0000.0001) %MON dynstat_salt_max             =   3.7393802007631E+01
(PID.TID 0000.0001) %MON dynstat_salt_min             =   2.9748878188412E+01
(PID.TID 0000.0001) %MON dynstat_salt_mean            =   3.4715990079393E+01
(PID.TID 0000.0001) %MON dynstat_salt_sd              =   2.9373144617873E-01
(PID.TID 0000.0001) %MON dynstat_salt_del2            =   2.3247467251890E-02
(PID.TID 0000.0001) %MON advcfl_uvel_max              =   3.0423947788094E-02
(PID.TID 0000.0001) %MON advcfl_vvel_max              =   1.7493138751021E-02
(PID.TID 0000.0001) %MON advcfl_wvel_max              =   6.6378915920138E-02
(PID.TID 0000.0001) %MON advcfl_W_hf_max              =   6.2538226006986E-02
(PID.TID 0000.0001) %MON pe_b_mean                    =   2.6545504438733E-04
(PID.TID 0000.0001) %MON ke_max                       =   2.0700850666905E-02
(PID.TID 0000.0001) %MON ke_mean                      =   2.3507144149781E-04
(PID.TID 0000.0001) %MON ke_vol                       =   1.3226782436723E+18
(PID.TID 0000.0001) %MON vort_r_min                   =  -7.8387861155087E-07
(PID.TID 0000.0001) %MON vort_r_max                   =   7.2690533815893E-07
(PID.TID 0000.0001) %MON vort_a_mean                  =  -2.5205767954124E-05
(PID.TID 0000.0001) %MON vort_a_sd                    =   7.3403516281454E-05
(PID.TID 0000.0001) %MON vort_p_mean                  =  -3.1758667743967E-05
(PID.TID 0000.0001) %MON vort_p_sd                    =   1.3126273300758E-04
(PID.TID 0000.0001) %MON surfExpan_theta_mean         =   1.2681919160064E-05
(PID.TID 0000.0001) %MON surfExpan_salt_mean          =   1.5668439386968E-08
(PID.TID 0000.0001) // =======================================================
(PID.TID 0000.0001) // End MONITOR dynamic field statistics
(PID.TID 0000.0001) // =======================================================
time,SST,SSS,fu,fv,Q,E-P,i0,i1,a,b =   3.7152E+06 -4.3250E-01  3.4441E+01 -1.5848E-02 -2.0277E-02  2.4217E+02  0.0000E+00     1     2  9.3333E-01  6.6667E-02
time,fu0,fu1,fu =   3.7152E+06 -3.5633E-02 -1.4435E-02 -1.5848E-02  9.3333E-01  6.6667E-02
 cg2d: Sum(rhs),rhsMax =   7.99776911364347E-14  1.00214503437478E+01
(PID.TID 0000.0001)                    cg2d_init_res =    2.72436471334012E-01
(PID.TID 0000.0001)                       cg2d_iters =    24
(PID.TID 0000.0001)                         cg2d_res =    4.15419469486406E-14
(PID.TID 0000.0001) // =======================================================
(PID.TID 0000.0001) // Begin MONITOR dynamic field statistics
(PID.TID 0000.0001) // =======================================================
(PID.TID 0000.0001) %MON time_tsnumber                =                    87
(PID.TID 0000.0001) %MON time_secondsf                =   3.7584000000000E+06
(PID.TID 0000.0001) %MON dynstat_eta_max              =   1.1203249113002E+00
(PID.TID 0000.0001) %MON dynstat_eta_min              =  -1.3024737651070E+00
(PID.TID 0000.0001) %MON dynstat_eta_mean             =   1.1385921519920E-16
(PID.TID 0000.0001) %MON dynstat_eta_sd               =   4.5648807086957E-01
(PID.TID 0000.0001) %MON dynstat_eta_del2             =   1.9213479879968E-02
(PID.TID 0000.0001) %MON dynstat_uvel_max             =   2.0463684736026E-01
(PID.TID 0000.0001) %MON dynstat_uvel_min             =  -1.5656157310668E-01
(PID.TID 0000.0001) %MON dynstat_uvel_mean            =   9.8957932179343E-04
(PID.TID 0000.0001) %MON dynstat_uvel_sd              =   1.6688072411925E-02
(PID.TID 0000.0001) %MON dynstat_uvel_del2            =   4.9107449639419E-03
(PID.TID 0000.0001) %MON dynstat_vvel_max             =   1.7933785971134E-01
(PID.TID 0000.0001) %MON dynstat_vvel_min             =  -1.5018994599741E-01
(PID.TID 0000.0001) %MON dynstat_vvel_mean            =  -5.8172016227115E-04
(PID.TID 0000.0001) %MON dynstat_vvel_sd              =   1.5220486621179E-02
(PID.TID 0000.0001) %MON dynstat_vvel_del2            =   4.4790188074432E-03
(PID.TID 0000.0001) %MON dynstat_wvel_max             =   3.8765421305059E-04
(PID.TID 0000.0001) %MON dynstat_wvel_min             =  -2.2741349799786E-04
(PID.TID 0000.0001) %MON dynstat_wvel_mean            =   5.3985116715195E-23
(PID.TID 0000.0001) %MON dynstat_wvel_sd              =   2.2240326983730E-05
(PID.TID 0000.0001) %MON dynstat_wvel_del2            =   8.8246420351479E-06
(PID.TID 0000.0001) %MON dynstat_theta_max            =   2.9792110193955E+01
(PID.TID 0000.0001) %MON dynstat_theta_min            =  -1.9321433277747E+00
(PID.TID 0000.0001) %MON dynstat_theta_mean           =   3.5893584421218E+00
(PID.TID 0000.0001) %MON dynstat_theta_sd             =   4.3345669295878E+00
(PID.TID 0000.0001) %MON dynstat_theta_del2           =   1.2866579876924E-01
(PID.TID 0000.0001) %MON dynstat_salt_max             =   3.7393568721818E+01
(PID.TID 0000.0001) %MON dynstat_salt_min             =   2.9746957931658E+01
(PID.TID 0000.0001) %MON dynstat_salt_mean            =   3.4715990912940E+01
(PID.TID 0000.0001) %MON dynstat_salt_sd              =   2.9371479649123E-01
(PID.TID 0000.0001) %MON dynstat_salt_del2            =   2.3225119051070E-02
(PID.TID 0000.0001) %MON advcfl_uvel_max              =   3.0358709295696E-02
(PID.TID 0000.0001) %MON advcfl_vvel_max              =   1.7421234954220E-02
(PID.TID 0000.0001) %MON advcfl_wvel_max              =   6.1205659147326E-02
(PID.TID 0000.0001) %MON advcfl_W_hf_max              =   6.3953320175779E-02
(PID.TID 0000.0001) %MON pe_b_mean                    =   2.6664906543881E-04
(PID.TID 0000.0001) %MON ke_max                       =   2.0373919985830E-02
(PID.TID 0000.0001) %MON ke_mean                      =   2.3112361154468E-04
(PID.TID 0000.0001) %MON ke_vol                       =   1.3226782436723E+18
(PID.TID 0000.0001) %MON vort_r_min                   =  -7.6692532502229E-07
(PID.TID 0000.0001) %MON vort_r_max                   =   7.2666228871113E-07
(PID.TID 0000.0001) %MON vort_a_mean                  =  -2.5205767977741E-05
(PID.TID 0000.0001) %MON vort_a_sd                    =   7.3403514700175E-05
(PID.TID 0000.0001) %MON vort_p_mean                  =  -3.1758667773724E-05
(PID.TID 0000.0001) %MON vort_p_sd                    =   1.3126271243602E-04
(PID.TID 0000.0001) %MON surfExpan_theta_mean         =   1.2247634898507E-05
(PID.TID 0000.0001) %MON surfExpan_salt_mean          =  -5.0555604621813E-08
(PID.TID 0000.0001) // =======================================================
(PID.TID 0000.0001) // End MONITOR dynamic field statistics
(PID.TID 0000.0001) // =======================================================
time,SST,SSS,fu,fv,Q,E-P,i0,i1,a,b =   3.7584E+06 -4.5734E-01  3.4436E+01 -1.5495E-02 -1.9617E-02  2.4175E+02  0.0000E+00     1     2  9.5000E-01  5.0000E-02
time,fu0,fu1,fu =   3.7584E+06 -3.5633E-02 -1.4435E-02 -1.5495E-02  9.5000E-01  5.0000E-02
 cg2d: Sum(rhs),rhsMax =  -2.02476924116013E-14  9.68125317600691E+00
(PID.TID 0000.0001)                    cg2d_init_res =    2.84453504767375E-01
(PID.TID 0000.0001)                       cg2d_iters =    24
(PID.TID 0000.0001)                         cg2d_res =    4.07690512923552E-14
(PID.TID 0000.0001) // =======================================================
(PID.TID 0000.0001) // Begin MONITOR dynamic field statistics
(PID.TID 0000.0001) // =======================================================
(PID.TID 0000.0001) %MON time_tsnumber                =                    88
(PID.TID 0000.0001) %MON time_secondsf                =   3.8016000000000E+06
(PID.TID 0000.0001) %MON dynstat_eta_max              =   1.0819158862065E+00
(PID.TID 0000.0001) %MON dynstat_eta_min              =  -1.3140070696144E+00
(PID.TID 0000.0001) %MON dynstat_eta_mean             =  -1.1713461743644E-17
(PID.TID 0000.0001) %MON dynstat_eta_sd               =   4.5741835473427E-01
(PID.TID 0000.0001) %MON dynstat_eta_del2             =   1.9173138871952E-02
(PID.TID 0000.0001) %MON dynstat_uvel_max             =   2.0051519992058E-01
(PID.TID 0000.0001) %MON dynstat_uvel_min             =  -1.5726899993994E-01
(PID.TID 0000.0001) %MON dynstat_uvel_mean            =   9.9783783196122E-04
(PID.TID 0000.0001) %MON dynstat_uvel_sd              =   1.6473844760390E-02
(PID.TID 0000.0001) %MON dynstat_uvel_del2            =   4.9071648418369E-03
(PID.TID 0000.0001) %MON dynstat_vvel_max             =   1.7836770489315E-01
(PID.TID 0000.0001) %MON dynstat_vvel_min             =  -1.5046514050974E-01
(PID.TID 0000.0001) %MON dynstat_vvel_mean            =  -4.9539921703086E-04
(PID.TID 0000.0001) %MON dynstat_vvel_sd              =   1.5184122905028E-02
(PID.TID 0000.0001) %MON dynstat_vvel_del2            =   4.4666324448625E-03
(PID.TID 0000.0001) %MON dynstat_wvel_max             =   3.8811961783101E-04
(PID.TID 0000.0001) %MON dynstat_wvel_min             =  -2.2415977072861E-04
(PID.TID 0000.0001) %MON dynstat_wvel_mean            =   4.4749891746590E-22
(PID.TID 0000.0001) %MON dynstat_wvel_sd              =   2.2142761286385E-05
(PID.TID 0000.0001) %MON dynstat_wvel_del2            =   8.7821841103283E-06
(PID.TID 0000.0001) %MON dynstat_theta_max            =   2.9795329339067E+01
(PID.TID 0000.0001) %MON dynstat_theta_min            =  -1.9321750324430E+00
(PID.TID 0000.0001) %MON dynstat_theta_mean           =   3.5892768750911E+00
(PID.TID 0000.0001) %MON dynstat_theta_sd             =   4.3344057297530E+00
(PID.TID 0000.0001) %MON dynstat_theta_del2           =   1.2866646829795E-01
(PID.TID 0000.0001) %MON dynstat_salt_max             =   3.7393304699317E+01
(PID.TID 0000.0001) %MON dynstat_salt_min             =   2.9745044965310E+01
(PID.TID 0000.0001) %MON dynstat_salt_mean            =   3.4715992246264E+01
(PID.TID 0000.0001) %MON dynstat_salt_sd              =   2.9369799314911E-01
(PID.TID 0000.0001) %MON dynstat_salt_del2            =   2.3206480248486E-02
(PID.TID 0000.0001) %MON advcfl_uvel_max              =   3.0291733952703E-02
(PID.TID 0000.0001) %MON advcfl_vvel_max              =   1.7326992193340E-02
(PID.TID 0000.0001) %MON advcfl_wvel_max              =   5.8633490440210E-02
(PID.TID 0000.0001) %MON advcfl_W_hf_max              =   6.4638145957637E-02
(PID.TID 0000.0001) %MON pe_b_mean                    =   2.6773698909273E-04
(PID.TID 0000.0001) %MON ke_max                       =   1.9951410514782E-02
(PID.TID 0000.0001) %MON ke_mean                      =   2.2736541764116E-04
(PID.TID 0000.0001) %MON ke_vol                       =   1.3226782436723E+18
(PID.TID 0000.0001) %MON vort_r_min                   =  -7.5083728493692E-07
(PID.TID 0000.0001) %MON vort_r_max                   =   7.2539055363965E-07
(PID.TID 0000.0001) %MON vort_a_mean                  =  -2.5205768004322E-05
(PID.TID 0000.0001) %MON vort_a_sd                    =   7.3403512274319E-05
(PID.TID 0000.0001) %MON vort_p_mean                  =  -3.1758667807215E-05
(PID.TID 0000.0001) %MON vort_p_sd                    =   1.3126268702521E-04
(PID.TID 0000.0001) %MON surfExpan_theta_mean         =   1.1797594261884E-05
(PID.TID 0000.0001) %MON surfExpan_salt_mean          =  -1.0264935370632E-07
(PID.TID 0000.0001) // =======================================================
(PID.TID 0000.0001) // End MONITOR dynamic field statistics
(PID.TID 0000.0001) // =======================================================
time,SST,SSS,fu,fv,Q,E-P,i0,i1,a,b =   3.8016E+06 -4.8218E-01  3.4431E+01 -1.5141E-02 -1.8956E-02  2.4132E+02  0.0000E+00     1     2  9.6667E-01  3.3333E-02
time,fu0,fu1,fu =   3.8016E+06 -3.5633E-02 -1.4435E-02 -1.5141E-02  9.6667E-01  3.3333E-02
 cg2d: Sum(rhs),rhsMax =   1.69447789133415E-13  9.26624592562628E+00
(PID.TID 0000.0001)                    cg2d_init_res =    3.00800826868400E-01
(PID.TID 0000.0001)                       cg2d_iters =    24
(PID.TID 0000.0001)                         cg2d_res =    3.64847426617967E-14
(PID.TID 0000.0001) // =======================================================
(PID.TID 0000.0001) // Begin MONITOR dynamic field statistics
(PID.TID 0000.0001) // =======================================================
(PID.TID 0000.0001) %MON time_tsnumber                =                    89
(PID.TID 0000.0001) %MON time_secondsf                =   3.8448000000000E+06
(PID.TID 0000.0001) %MON dynstat_eta_max              =   1.0351736319064E+00
(PID.TID 0000.0001) %MON dynstat_eta_min              =  -1.3262987798620E+00
(PID.TID 0000.0001) %MON dynstat_eta_mean             =   3.8495433774814E-16
(PID.TID 0000.0001) %MON dynstat_eta_sd               =   4.5827644077639E-01
(PID.TID 0000.0001) %MON dynstat_eta_del2             =   1.9115645443702E-02
(PID.TID 0000.0001) %MON dynstat_uvel_max             =   1.9584670690740E-01
(PID.TID 0000.0001) %MON dynstat_uvel_min             =  -1.5777107816153E-01
(PID.TID 0000.0001) %MON dynstat_uvel_mean            =   1.0027131920968E-03
(PID.TID 0000.0001) %MON dynstat_uvel_sd              =   1.6270648808316E-02
(PID.TID 0000.0001) %MON dynstat_uvel_del2            =   4.9038353558744E-03
(PID.TID 0000.0001) %MON dynstat_vvel_max             =   1.7718250161720E-01
(PID.TID 0000.0001) %MON dynstat_vvel_min             =  -1.5070682413243E-01
(PID.TID 0000.0001) %MON dynstat_vvel_mean            =  -4.0833219950554E-04
(PID.TID 0000.0001) %MON dynstat_vvel_sd              =   1.5148254887941E-02
(PID.TID 0000.0001) %MON dynstat_vvel_del2            =   4.4545763924905E-03
(PID.TID 0000.0001) %MON dynstat_wvel_max             =   3.8845096274840E-04
(PID.TID 0000.0001) %MON dynstat_wvel_min             =  -2.2087084171758E-04
(PID.TID 0000.0001) %MON dynstat_wvel_mean            =   4.2018180388944E-23
(PID.TID 0000.0001) %MON dynstat_wvel_sd              =   2.2049643610946E-05
(PID.TID 0000.0001) %MON dynstat_wvel_del2            =   8.7370906611073E-06
(PID.TID 0000.0001) %MON dynstat_theta_max            =   2.9798290433252E+01
(PID.TID 0000.0001) %MON dynstat_theta_min            =  -1.9322574089732E+00
(PID.TID 0000.0001) %MON dynstat_theta_mean           =   3.5892006915140E+00
(PID.TID 0000.0001) %MON dynstat_theta_sd             =   4.3342594387641E+00
(PID.TID 0000.0001) %MON dynstat_theta_del2           =   1.2867845367953E-01
(PID.TID 0000.0001) %MON dynstat_salt_max             =   3.7393012763223E+01
(PID.TID 0000.0001) %MON dynstat_salt_min             =   2.9743139001954E+01
(PID.TID 0000.0001) %MON dynstat_salt_mean            =   3.4715993921996E+01
(PID.TID 0000.0001) %MON dynstat_salt_sd              =   2.9368092782746E-01
(PID.TID 0000.0001) %MON dynstat_salt_del2            =   2.3182901628208E-02
(PID.TID 0000.0001) %MON advcfl_uvel_max              =   3.0222876158083E-02
(PID.TID 0000.0001) %MON advcfl_vvel_max              =   1.7211859199269E-02
(PID.TID 0000.0001) %MON advcfl_wvel_max              =   6.7435602026774E-02
(PID.TID 0000.0001) %MON advcfl_W_hf_max              =   6.5951889784059E-02
(PID.TID 0000.0001) %MON pe_b_mean                    =   2.6874244442960E-04
(PID.TID 0000.0001) %MON ke_max                       =   1.9441603042952E-02
(PID.TID 0000.0001) %MON ke_mean                      =   2.2382328179486E-04
(PID.TID 0000.0001) %MON ke_vol                       =   1.3226782436723E+18
(PID.TID 0000.0001) %MON vort_r_min                   =  -7.3564814364328E-07
(PID.TID 0000.0001) %MON vort_r_max                   =   7.2314597648409E-07
(PID.TID 0000.0001) %MON vort_a_mean                  =  -2.5205768033527E-05
(PID.TID 0000.0001) %MON vort_a_sd                    =   7.3403509047408E-05
(PID.TID 0000.0001) %MON vort_p_mean                  =  -3.1758667844013E-05
(PID.TID 0000.0001) %MON vort_p_sd                    =   1.3126265655396E-04
(PID.TID 0000.0001) %MON surfExpan_theta_mean         =   1.1336294534319E-05
(PID.TID 0000.0001) %MON surfExpan_salt_mean          =  -1.4077506258179E-07
(PID.TID 0000.0001) // =======================================================
(PID.TID 0000.0001) // End MONITOR dynamic field statistics
(PID.TID 0000.0001) // =======================================================
time,SST,SSS,fu,fv,Q,E-P,i0,i1,a,b =   3.8448E+06 -5.0702E-01  3.4426E+01 -1.4788E-02 -1.8296E-02  2.4090E+02  0.0000E+00     1     2  9.8333E-01  1.6667E-02
time,fu0,fu1,fu =   3.8448E+06 -3.5633E-02 -1.4435E-02 -1.4788E-02  9.8333E-01  1.6667E-02
 cg2d: Sum(rhs),rhsMax =   1.61620716809807E-13  8.78736553546055E+00
(PID.TID 0000.0001)                    cg2d_init_res =    3.21097867517426E-01
(PID.TID 0000.0001)                       cg2d_iters =    24
(PID.TID 0000.0001)                         cg2d_res =    4.36150209316722E-14
(PID.TID 0000.0001) // =======================================================
(PID.TID 0000.0001) // Begin MONITOR dynamic field statistics
(PID.TID 0000.0001) // =======================================================
(PID.TID 0000.0001) %MON time_tsnumber                =                    90
(PID.TID 0000.0001) %MON time_secondsf                =   3.8880000000000E+06
(PID.TID 0000.0001) %MON dynstat_eta_max              =   9.8132107422551E-01
(PID.TID 0000.0001) %MON dynstat_eta_min              =  -1.3387030135144E+00
(PID.TID 0000.0001) %MON dynstat_eta_mean             =  -2.4713978824290E-16
(PID.TID 0000.0001) %MON dynstat_eta_sd               =   4.5908453978484E-01
(PID.TID 0000.0001) %MON dynstat_eta_del2             =   1.9038321371000E-02
(PID.TID 0000.0001) %MON dynstat_uvel_max             =   1.9069519608109E-01
(PID.TID 0000.0001) %MON dynstat_uvel_min             =  -1.5808062568754E-01
(PID.TID 0000.0001) %MON dynstat_uvel_mean            =   1.0044447832314E-03
(PID.TID 0000.0001) %MON dynstat_uvel_sd              =   1.6080743637785E-02
(PID.TID 0000.0001) %MON dynstat_uvel_del2            =   4.8997108043983E-03
(PID.TID 0000.0001) %MON dynstat_vvel_max             =   1.7580083476492E-01
(PID.TID 0000.0001) %MON dynstat_vvel_min             =  -1.5090180584917E-01
(PID.TID 0000.0001) %MON dynstat_vvel_mean            =  -3.1998531806505E-04
(PID.TID 0000.0001) %MON dynstat_vvel_sd              =   1.5112478774158E-02
(PID.TID 0000.0001) %MON dynstat_vvel_del2            =   4.4419932205857E-03
(PID.TID 0000.0001) %MON dynstat_wvel_max             =   3.8862625810668E-04
(PID.TID 0000.0001) %MON dynstat_wvel_min             =  -2.1757764195860E-04
(PID.TID 0000.0001) %MON dynstat_wvel_mean            =  -7.8354454912397E-24
(PID.TID 0000.0001) %MON dynstat_wvel_sd              =   2.1957960980350E-05
(PID.TID 0000.0001) %MON dynstat_wvel_del2            =   8.6885064477564E-06
(PID.TID 0000.0001) %MON dynstat_theta_max            =   2.9801026919833E+01
(PID.TID 0000.0001) %MON dynstat_theta_min            =  -1.9323019916909E+00
(PID.TID 0000.0001) %MON dynstat_theta_mean           =   3.5891299236389E+00
(PID.TID 0000.0001) %MON dynstat_theta_sd             =   4.3341274644762E+00
(PID.TID 0000.0001) %MON dynstat_theta_del2           =   1.2869225170526E-01
(PID.TID 0000.0001) %MON dynstat_salt_max             =   3.7392694596905E+01
(PID.TID 0000.0001) %MON dynstat_salt_min             =   2.9741239968096E+01
(PID.TID 0000.0001) %MON dynstat_salt_mean            =   3.4715995793206E+01
(PID.TID 0000.0001) %MON dynstat_salt_sd              =   2.9366342121733E-01
(PID.TID 0000.0001) %MON dynstat_salt_del2            =   2.3159300205449E-02
(PID.TID 0000.0001) %MON advcfl_uvel_max              =   3.0151969052029E-02
(PID.TID 0000.0001) %MON advcfl_vvel_max              =   1.7077641344206E-02
(PID.TID 0000.0001) %MON advcfl_wvel_max              =   7.7547683060558E-02
(PID.TID 0000.0001) %MON advcfl_W_hf_max              =   7.5342310162567E-02
(PID.TID 0000.0001) %MON pe_b_mean                    =   2.6969105080201E-04
(PID.TID 0000.0001) %MON ke_max                       =   1.8853913973177E-02
(PID.TID 0000.0001) %MON ke_mean                      =   2.2051876758221E-04
(PID.TID 0000.0001) %MON ke_vol                       =   1.3226782436723E+18
(PID.TID 0000.0001) %MON vort_r_min                   =  -7.2136501560609E-07
(PID.TID 0000.0001) %MON vort_r_max                   =   7.2000002274213E-07
(PID.TID 0000.0001) %MON vort_a_mean                  =  -2.5205768064977E-05
(PID.TID 0000.0001) %MON vort_a_sd                    =   7.3403505079443E-05
(PID.TID 0000.0001) %MON vort_p_mean                  =  -3.1758667883638E-05
(PID.TID 0000.0001) %MON vort_p_sd                    =   1.3126262092057E-04
(PID.TID 0000.0001) %MON surfExpan_theta_mean         =   1.0866824463582E-05
(PID.TID 0000.0001) %MON surfExpan_salt_mean          =  -1.6573970863921E-07
(PID.TID 0000.0001) // =======================================================
(PID.TID 0000.0001) // End MONITOR dynamic field statistics
(PID.TID 0000.0001) // =======================================================
(PID.TID 0000.0001)  MDS_WRITE_RL_VEC: irec =  00000016   00066240
(PID.TID 0000.0001)  MDS_WRITE_RL_VEC: irec =  00000016   00066240
(PID.TID 0000.0001)  MDS_WRITE_RL_VEC: irec =  00000016   00066240
(PID.TID 0000.0001)  MDS_WRITE_RL_VEC: irec =  00000016   00066240
(PID.TID 0000.0001)  MDS_WRITE_RL_VEC: irec =  00000016   00066240
(PID.TID 0000.0001)  MDS_WRITE_RL_VEC: irec =  00000016   00066240
(PID.TID 0000.0001)  MDS_WRITE_RL_VEC: irec =  00000016   00066240
(PID.TID 0000.0001)  MDS_WRITE_RL_VEC: irec =  00000016   00066240
(PID.TID 0000.0001)  MDS_WRITE_RL_VEC: irec =  00000016   00066240
(PID.TID 0000.0001)  MDS_WRITE_RL_VEC: irec =  00000016   00066240
(PID.TID 0000.0001)  MDS_WRITE_RL_VEC: irec =  00000016   00066240
(PID.TID 0000.0001)  MDS_WRITE_RL_VEC: irec =  00000016   00004416
(PID.TID 0000.0001)  MDS_WRITE_RL_VEC: irec =  00000016   00066240
(PID.TID 0000.0001)  MDS_WRITE_RL_VEC: irec =  00000016   00004416
(PID.TID 0000.0001)  MDS_WRITE_RL_VEC: irec =  00000016   00004416
(PID.TID 0000.0001)  MDS_WRITE_RL_VEC: irec =  00000016   00004416
(PID.TID 0000.0001)  MDS_WRITE_RL_VEC: irec =  00000016   00004416
(PID.TID 0000.0001)  MDS_WRITE_RL_VEC: irec =  00000016   00004416
(PID.TID 0000.0001)  MDS_WRITE_RL_VEC: irec =  00000016   00004416
(PID.TID 0000.0001)  MDS_WRITE_RL_VEC: irec =  00000016   00004416
(PID.TID 0000.0001)  MDS_WRITE_RL_VEC: irec =  00000016   00004416
(PID.TID 0000.0001)  MDS_WRITE_RL_VEC: irec =  00000016   00004416
(PID.TID 0000.0001)  MDS_WRITE_RL_VEC: irec =  00000016   00004416
(PID.TID 0000.0001)  MDS_WRITE_RL_VEC: irec =  00000016   00004416
(PID.TID 0000.0001)  MDS_WRITE_RL_VEC: irec =  00000016   00004416
(PID.TID 0000.0001)  MDS_WRITE_RL_VEC: irec =  00000016   00004416
(PID.TID 0000.0001)  MDS_WRITE_RL_VEC: irec =  00000016   00004416
(PID.TID 0000.0001)  MDS_WRITE_RL_VEC: irec =  00000016   00004416
(PID.TID 0000.0001)  MDS_WRITE_RL_VEC: irec =  00000016   00004416
(PID.TID 0000.0001)  MDS_WRITE_RL_VEC: irec =  00000016   00004416
(PID.TID 0000.0001)  MDS_WRITE_RL_VEC: irec =  00000016   00004416
 S/R EXTERNAL_FIELDS_LOAD: Reading new data  3888000. 90
(PID.TID 0000.0001)  MDSREADFIELD: opening global file: trenberth_taux.bin
(PID.TID 0000.0001)  MDSREADFIELD: opening global file: trenberth_taux.bin
(PID.TID 0000.0001)  MDSREADFIELD: opening global file: trenberth_tauy.bin
(PID.TID 0000.0001)  MDSREADFIELD: opening global file: trenberth_tauy.bin
(PID.TID 0000.0001)  MDSREADFIELD: opening global file: ncep_qnet.bin
(PID.TID 0000.0001)  MDSREADFIELD: opening global file: ncep_qnet.bin
(PID.TID 0000.0001)  MDSREADFIELD: opening global file: lev_sst.bin
(PID.TID 0000.0001)  MDSREADFIELD: opening global file: lev_sst.bin
(PID.TID 0000.0001)  MDSREADFIELD: opening global file: lev_sss.bin
(PID.TID 0000.0001)  MDSREADFIELD: opening global file: lev_sss.bin
time,SST,SSS,fu,fv,Q,E-P,i0,i1,a,b =   3.8880E+06 -5.3186E-01  3.4421E+01 -1.4435E-02 -1.7636E-02  2.4048E+02  0.0000E+00     2     3  0.0000E+00  1.0000E+00
time,fu0,fu1,fu =   3.8880E+06 -1.4435E-02 -2.7199E-02 -1.4435E-02  0.0000E+00  1.0000E+00
 cg2d: Sum(rhs),rhsMax =  -6.16035000788884E-14  8.25636774540552E+00
(PID.TID 0000.0001)                    cg2d_init_res =    3.45114615023290E-01
(PID.TID 0000.0001)                       cg2d_iters =    24
(PID.TID 0000.0001)                         cg2d_res =    5.11145018652949E-14
(PID.TID 0000.0001) // =======================================================
(PID.TID 0000.0001) // Begin MONITOR dynamic field statistics
(PID.TID 0000.0001) // =======================================================
(PID.TID 0000.0001) %MON time_tsnumber                =                    91
(PID.TID 0000.0001) %MON time_secondsf                =   3.9312000000000E+06
(PID.TID 0000.0001) %MON dynstat_eta_max              =   9.2167333918680E-01
(PID.TID 0000.0001) %MON dynstat_eta_min              =  -1.3506212036318E+00
(PID.TID 0000.0001) %MON dynstat_eta_mean             =   6.1744959462413E-17
(PID.TID 0000.0001) %MON dynstat_eta_sd               =   4.5986486919162E-01
(PID.TID 0000.0001) %MON dynstat_eta_del2             =   1.8943281118002E-02
(PID.TID 0000.0001) %MON dynstat_uvel_max             =   1.8512922895062E-01
(PID.TID 0000.0001) %MON dynstat_uvel_min             =  -1.5821292123877E-01
(PID.TID 0000.0001) %MON dynstat_uvel_mean            =   1.0033228211707E-03
(PID.TID 0000.0001) %MON dynstat_uvel_sd              =   1.5906354858622E-02
(PID.TID 0000.0001) %MON dynstat_uvel_del2            =   4.8941956335621E-03
(PID.TID 0000.0001) %MON dynstat_vvel_max             =   1.7424416276231E-01
(PID.TID 0000.0001) %MON dynstat_vvel_min             =  -1.5103678842475E-01
(PID.TID 0000.0001) %MON dynstat_vvel_mean            =  -2.2989615163124E-04
(PID.TID 0000.0001) %MON dynstat_vvel_sd              =   1.5076224316661E-02
(PID.TID 0000.0001) %MON dynstat_vvel_del2            =   4.4283759351404E-03
(PID.TID 0000.0001) %MON dynstat_wvel_max             =   3.8862169307022E-04
(PID.TID 0000.0001) %MON dynstat_wvel_min             =  -2.1430758397277E-04
(PID.TID 0000.0001) %MON dynstat_wvel_mean            =  -6.1155581837199E-23
(PID.TID 0000.0001) %MON dynstat_wvel_sd              =   2.1865057836755E-05
(PID.TID 0000.0001) %MON dynstat_wvel_del2            =   8.6363606543167E-06
(PID.TID 0000.0001) %MON dynstat_theta_max            =   2.9803581067448E+01
(PID.TID 0000.0001) %MON dynstat_theta_min            =  -1.9323457375289E+00
(PID.TID 0000.0001) %MON dynstat_theta_mean           =   3.5890644929135E+00
(PID.TID 0000.0001) %MON dynstat_theta_sd             =   4.3340094426369E+00
(PID.TID 0000.0001) %MON dynstat_theta_del2           =   1.2870689695223E-01
(PID.TID 0000.0001) %MON dynstat_salt_max             =   3.7392353495494E+01
(PID.TID 0000.0001) %MON dynstat_salt_min             =   2.9739348049791E+01
(PID.TID 0000.0001) %MON dynstat_salt_mean            =   3.4715997731498E+01
(PID.TID 0000.0001) %MON dynstat_salt_sd              =   2.9364526325181E-01
(PID.TID 0000.0001) %MON dynstat_salt_del2            =   2.3134299486146E-02
(PID.TID 0000.0001) %MON advcfl_uvel_max              =   3.0078802200043E-02
(PID.TID 0000.0001) %MON advcfl_vvel_max              =   1.6926423142161E-02
(PID.TID 0000.0001) %MON advcfl_wvel_max              =   8.5892738455740E-02
(PID.TID 0000.0001) %MON advcfl_W_hf_max              =   8.2899063416406E-02
(PID.TID 0000.0001) %MON pe_b_mean                    =   2.7060864524884E-04
(PID.TID 0000.0001) %MON ke_max                       =   1.8198609443774E-02
(PID.TID 0000.0001) %MON ke_mean                      =   2.1746988979423E-04
(PID.TID 0000.0001) %MON ke_vol                       =   1.3226782436723E+18
(PID.TID 0000.0001) %MON vort_r_min                   =  -7.0797476141424E-07
(PID.TID 0000.0001) %MON vort_r_max                   =   7.1603621876512E-07
(PID.TID 0000.0001) %MON vort_a_mean                  =  -2.5205768098283E-05
(PID.TID 0000.0001) %MON vort_a_sd                    =   7.3403500446235E-05
(PID.TID 0000.0001) %MON vort_p_mean                  =  -3.1758667925604E-05
(PID.TID 0000.0001) %MON vort_p_sd                    =   1.3126258012908E-04
(PID.TID 0000.0001) %MON surfExpan_theta_mean         =   1.0397078983340E-05
(PID.TID 0000.0001) %MON surfExpan_salt_mean          =  -1.7827747341722E-07
(PID.TID 0000.0001) // =======================================================
(PID.TID 0000.0001) // End MONITOR dynamic field statistics
(PID.TID 0000.0001) // =======================================================
time,SST,SSS,fu,fv,Q,E-P,i0,i1,a,b =   3.9312E+06 -5.2606E-01  3.4424E+01 -1.4647E-02 -1.7351E-02  2.4006E+02  0.0000E+00     2     3  1.6667E-02  9.8333E-01
time,fu0,fu1,fu =   3.9312E+06 -1.4435E-02 -2.7199E-02 -1.4647E-02  1.6667E-02  9.8333E-01
 cg2d: Sum(rhs),rhsMax =  -4.98212582300539E-15  7.68566216513986E+00
(PID.TID 0000.0001)                    cg2d_init_res =    3.72769254605740E-01
(PID.TID 0000.0001)                       cg2d_iters =    24
(PID.TID 0000.0001)                         cg2d_res =    5.81322619791758E-14
(PID.TID 0000.0001) // =======================================================
(PID.TID 0000.0001) // Begin MONITOR dynamic field statistics
(PID.TID 0000.0001) // =======================================================
(PID.TID 0000.0001) %MON time_tsnumber                =                    92
(PID.TID 0000.0001) %MON time_secondsf                =   3.9744000000000E+06
(PID.TID 0000.0001) %MON dynstat_eta_max              =   8.5761811789549E-01
(PID.TID 0000.0001) %MON dynstat_eta_min              =  -1.3615419788481E+00
(PID.TID 0000.0001) %MON dynstat_eta_mean             =  -1.0906064121678E-16
(PID.TID 0000.0001) %MON dynstat_eta_sd               =   4.6063835588992E-01
(PID.TID 0000.0001) %MON dynstat_eta_del2             =   1.8829245587940E-02
(PID.TID 0000.0001) %MON dynstat_uvel_max             =   1.7928007282884E-01
(PID.TID 0000.0001) %MON dynstat_uvel_min             =  -1.5818462691728E-01
(PID.TID 0000.0001) %MON dynstat_uvel_mean            =   9.9968540964953E-04
(PID.TID 0000.0001) %MON dynstat_uvel_sd              =   1.5749721047200E-02
(PID.TID 0000.0001) %MON dynstat_uvel_del2            =   4.8867498430512E-03
(PID.TID 0000.0001) %MON dynstat_vvel_max             =   1.7254668323200E-01
(PID.TID 0000.0001) %MON dynstat_vvel_min             =  -1.5109885231381E-01
(PID.TID 0000.0001) %MON dynstat_vvel_mean            =  -1.3768518490164E-04
(PID.TID 0000.0001) %MON dynstat_vvel_sd              =   1.5038664810135E-02
(PID.TID 0000.0001) %MON dynstat_vvel_del2            =   4.4124158234652E-03
(PID.TID 0000.0001) %MON dynstat_wvel_max             =   3.8841261611985E-04
(PID.TID 0000.0001) %MON dynstat_wvel_min             =  -2.1108466414425E-04
(PID.TID 0000.0001) %MON dynstat_wvel_mean            =   2.2590725423306E-22
(PID.TID 0000.0001) %MON dynstat_wvel_sd              =   2.1768601150036E-05
(PID.TID 0000.0001) %MON dynstat_wvel_del2            =   8.5813238850445E-06
(PID.TID 0000.0001) %MON dynstat_theta_max            =   2.9805945213043E+01
(PID.TID 0000.0001) %MON dynstat_theta_min            =  -1.9322044623389E+00
(PID.TID 0000.0001) %MON dynstat_theta_mean           =   3.5890038206275E+00
(PID.TID 0000.0001) %MON dynstat_theta_sd             =   4.3339033422164E+00
(PID.TID 0000.0001) %MON dynstat_theta_del2           =   1.2870416992053E-01
(PID.TID 0000.0001) %MON dynstat_salt_max             =   3.7391992544271E+01
(PID.TID 0000.0001) %MON dynstat_salt_min             =   2.9737464243633E+01
(PID.TID 0000.0001) %MON dynstat_salt_mean            =   3.4715999621488E+01
(PID.TID 0000.0001) %MON dynstat_salt_sd              =   2.9362624677690E-01
(PID.TID 0000.0001) %MON dynstat_salt_del2            =   2.3108447709326E-02
(PID.TID 0000.0001) %MON advcfl_uvel_max              =   3.0003119622877E-02
(PID.TID 0000.0001) %MON advcfl_vvel_max              =   1.6761526617941E-02
(PID.TID 0000.0001) %MON advcfl_wvel_max              =   9.2239518659480E-02
(PID.TID 0000.0001) %MON advcfl_W_hf_max              =   8.8533351227959E-02
(PID.TID 0000.0001) %MON pe_b_mean                    =   2.7151973122978E-04
(PID.TID 0000.0001) %MON ke_max                       =   1.7497690420885E-02
(PID.TID 0000.0001) %MON ke_mean                      =   2.1469088072935E-04
(PID.TID 0000.0001) %MON ke_vol                       =   1.3226782436723E+18
(PID.TID 0000.0001) %MON vort_r_min                   =  -6.9559892169581E-07
(PID.TID 0000.0001) %MON vort_r_max                   =   7.1140517909375E-07
(PID.TID 0000.0001) %MON vort_a_mean                  =  -2.5205768132532E-05
(PID.TID 0000.0001) %MON vort_a_sd                    =   7.3403495242724E-05
(PID.TID 0000.0001) %MON vort_p_mean                  =  -3.1758667968757E-05
(PID.TID 0000.0001) %MON vort_p_sd                    =   1.3126253425086E-04
(PID.TID 0000.0001) %MON surfExpan_theta_mean         =   9.9295272620712E-06
(PID.TID 0000.0001) %MON surfExpan_salt_mean          =  -1.8027179004370E-07
(PID.TID 0000.0001) // =======================================================
(PID.TID 0000.0001) // End MONITOR dynamic field statistics
(PID.TID 0000.0001) // =======================================================
time,SST,SSS,fu,fv,Q,E-P,i0,i1,a,b =   3.9744E+06 -5.2026E-01  3.4426E+01 -1.4860E-02 -1.7067E-02  2.3964E+02  0.0000E+00     2     3  3.3333E-02  9.6667E-01
time,fu0,fu1,fu =   3.9744E+06 -1.4435E-02 -2.7199E-02 -1.4860E-02  3.3333E-02  9.6667E-01
 cg2d: Sum(rhs),rhsMax =   4.67972882667311E-13  7.08797888964291E+00
(PID.TID 0000.0001)                    cg2d_init_res =    4.04130333517225E-01
(PID.TID 0000.0001)                       cg2d_iters =    24
(PID.TID 0000.0001)                         cg2d_res =    6.51791035986727E-14
(PID.TID 0000.0001) // =======================================================
(PID.TID 0000.0001) // Begin MONITOR dynamic field statistics
(PID.TID 0000.0001) // =======================================================
(PID.TID 0000.0001) %MON time_tsnumber                =                    93
(PID.TID 0000.0001) %MON time_secondsf                =   4.0176000000000E+06
(PID.TID 0000.0001) %MON dynstat_eta_max              =   7.9058001310048E-01
(PID.TID 0000.0001) %MON dynstat_eta_min              =  -1.3710353571660E+00
(PID.TID 0000.0001) %MON dynstat_eta_mean             =  -8.9448444267269E-17
(PID.TID 0000.0001) %MON dynstat_eta_sd               =   4.6142341794261E-01
(PID.TID 0000.0001) %MON dynstat_eta_del2             =   1.8722834913932E-02
(PID.TID 0000.0001) %MON dynstat_uvel_max             =   1.7319419619410E-01
(PID.TID 0000.0001) %MON dynstat_uvel_min             =  -1.5801339601824E-01
(PID.TID 0000.0001) %MON dynstat_uvel_mean            =   9.9388896492718E-04
(PID.TID 0000.0001) %MON dynstat_uvel_sd              =   1.5612815935317E-02
(PID.TID 0000.0001) %MON dynstat_uvel_del2            =   4.8782875724342E-03
(PID.TID 0000.0001) %MON dynstat_vvel_max             =   1.7072796730444E-01
(PID.TID 0000.0001) %MON dynstat_vvel_min             =  -1.5107601223317E-01
(PID.TID 0000.0001) %MON dynstat_vvel_mean            =  -4.3116884689945E-05
(PID.TID 0000.0001) %MON dynstat_vvel_sd              =   1.4999199444711E-02
(PID.TID 0000.0001) %MON dynstat_vvel_del2            =   4.3946295792373E-03
(PID.TID 0000.0001) %MON dynstat_wvel_max             =   3.8797433715347E-04
(PID.TID 0000.0001) %MON dynstat_wvel_min             =  -2.0792967173210E-04
(PID.TID 0000.0001) %MON dynstat_wvel_mean            =   3.1877772382083E-22
(PID.TID 0000.0001) %MON dynstat_wvel_sd              =   2.1666860832575E-05
(PID.TID 0000.0001) %MON dynstat_wvel_del2            =   8.5212611271308E-06
(PID.TID 0000.0001) %MON dynstat_theta_max            =   2.9808199449147E+01
(PID.TID 0000.0001) %MON dynstat_theta_min            =  -1.9320859300202E+00
(PID.TID 0000.0001) %MON dynstat_theta_mean           =   3.5889479753490E+00
(PID.TID 0000.0001) %MON dynstat_theta_sd             =   4.3338089627507E+00
(PID.TID 0000.0001) %MON dynstat_theta_del2           =   1.2869596182741E-01
(PID.TID 0000.0001) %MON dynstat_salt_max             =   3.7391615254150E+01
(PID.TID 0000.0001) %MON dynstat_salt_min             =   2.9735589871200E+01
(PID.TID 0000.0001) %MON dynstat_salt_mean            =   3.4716001374766E+01
(PID.TID 0000.0001) %MON dynstat_salt_sd              =   2.9360592942177E-01
(PID.TID 0000.0001) %MON dynstat_salt_del2            =   2.3084545402397E-02
(PID.TID 0000.0001) %MON advcfl_uvel_max              =   2.9924614488008E-02
(PID.TID 0000.0001) %MON advcfl_vvel_max              =   1.6584852949926E-02
(PID.TID 0000.0001) %MON advcfl_wvel_max              =   9.6534870904816E-02
(PID.TID 0000.0001) %MON advcfl_W_hf_max              =   9.2194003214454E-02
(PID.TID 0000.0001) %MON pe_b_mean                    =   2.7244601745008E-04
(PID.TID 0000.0001) %MON ke_max                       =   1.7082727024886E-02
(PID.TID 0000.0001) %MON ke_mean                      =   2.1219506278839E-04
(PID.TID 0000.0001) %MON ke_vol                       =   1.3226782436723E+18
(PID.TID 0000.0001) %MON vort_r_min                   =  -6.8434488373599E-07
(PID.TID 0000.0001) %MON vort_r_max                   =   7.0617940282254E-07
(PID.TID 0000.0001) %MON vort_a_mean                  =  -2.5205768167625E-05
(PID.TID 0000.0001) %MON vort_a_sd                    =   7.3403489566824E-05
(PID.TID 0000.0001) %MON vort_p_mean                  =  -3.1758668012973E-05
(PID.TID 0000.0001) %MON vort_p_sd                    =   1.3126248348521E-04
(PID.TID 0000.0001) %MON surfExpan_theta_mean         =   9.4682484132244E-06
(PID.TID 0000.0001) %MON surfExpan_salt_mean          =  -1.7325252784591E-07
(PID.TID 0000.0001) // =======================================================
(PID.TID 0000.0001) // End MONITOR dynamic field statistics
(PID.TID 0000.0001) // =======================================================
time,SST,SSS,fu,fv,Q,E-P,i0,i1,a,b =   4.0176E+06 -5.1446E-01  3.4429E+01 -1.5073E-02 -1.6783E-02  2.3923E+02  0.0000E+00     2     3  5.0000E-02  9.5000E-01
time,fu0,fu1,fu =   4.0176E+06 -1.4435E-02 -2.7199E-02 -1.5073E-02  5.0000E-02  9.5000E-01
 cg2d: Sum(rhs),rhsMax =  -3.02410874120085E-13  6.77027622497841E+00
(PID.TID 0000.0001)                    cg2d_init_res =    4.20314746915193E-01
(PID.TID 0000.0001)                       cg2d_iters =    24
(PID.TID 0000.0001)                         cg2d_res =    6.93433080687315E-14
(PID.TID 0000.0001) // =======================================================
(PID.TID 0000.0001) // Begin MONITOR dynamic field statistics
(PID.TID 0000.0001) // =======================================================
(PID.TID 0000.0001) %MON time_tsnumber                =                    94
(PID.TID 0000.0001) %MON time_secondsf                =   4.0608000000000E+06
(PID.TID 0000.0001) %MON dynstat_eta_max              =   7.6205426132373E-01
(PID.TID 0000.0001) %MON dynstat_eta_min              =  -1.3787761092109E+00
(PID.TID 0000.0001) %MON dynstat_eta_mean             =   1.2062645484910E-16
(PID.TID 0000.0001) %MON dynstat_eta_sd               =   4.6223509608217E-01
(PID.TID 0000.0001) %MON dynstat_eta_del2             =   1.8618847187477E-02
(PID.TID 0000.0001) %MON dynstat_uvel_max             =   1.6694452907741E-01
(PID.TID 0000.0001) %MON dynstat_uvel_min             =  -1.5771692289056E-01
(PID.TID 0000.0001) %MON dynstat_uvel_mean            =   9.8631882524145E-04
(PID.TID 0000.0001) %MON dynstat_uvel_sd              =   1.5497466815478E-02
(PID.TID 0000.0001) %MON dynstat_uvel_del2            =   4.8685143928868E-03
(PID.TID 0000.0001) %MON dynstat_vvel_max             =   1.6881301297910E-01
(PID.TID 0000.0001) %MON dynstat_vvel_min             =  -1.5095768366106E-01
(PID.TID 0000.0001) %MON dynstat_vvel_mean            =   5.3904511946037E-05
(PID.TID 0000.0001) %MON dynstat_vvel_sd              =   1.4957252499602E-02
(PID.TID 0000.0001) %MON dynstat_vvel_del2            =   4.3761778560152E-03
(PID.TID 0000.0001) %MON dynstat_wvel_max             =   3.8728264597727E-04
(PID.TID 0000.0001) %MON dynstat_wvel_min             =  -2.0486069258615E-04
(PID.TID 0000.0001) %MON dynstat_wvel_mean            =  -4.7951499792502E-22
(PID.TID 0000.0001) %MON dynstat_wvel_sd              =   2.1558817495233E-05
(PID.TID 0000.0001) %MON dynstat_wvel_del2            =   8.4566675792671E-06
(PID.TID 0000.0001) %MON dynstat_theta_max            =   2.9810405206825E+01
(PID.TID 0000.0001) %MON dynstat_theta_min            =  -1.9319237837746E+00
(PID.TID 0000.0001) %MON dynstat_theta_mean           =   3.5888968151845E+00
(PID.TID 0000.0001) %MON dynstat_theta_sd             =   4.3337269910029E+00
(PID.TID 0000.0001) %MON dynstat_theta_del2           =   1.2874884612207E-01
(PID.TID 0000.0001) %MON dynstat_salt_max             =   3.7391224649996E+01
(PID.TID 0000.0001) %MON dynstat_salt_min             =   2.9733726466374E+01
(PID.TID 0000.0001) %MON dynstat_salt_mean            =   3.4716002923662E+01
(PID.TID 0000.0001) %MON dynstat_salt_sd              =   2.9358443389163E-01
(PID.TID 0000.0001) %MON dynstat_salt_del2            =   2.3073353499649E-02
(PID.TID 0000.0001) %MON advcfl_uvel_max              =   2.9842914804882E-02
(PID.TID 0000.0001) %MON advcfl_vvel_max              =   1.6398830493307E-02
(PID.TID 0000.0001) %MON advcfl_wvel_max              =   9.8758958564715E-02
(PID.TID 0000.0001) %MON advcfl_W_hf_max              =   9.3865790716147E-02
(PID.TID 0000.0001) %MON pe_b_mean                    =   2.7340536614150E-04
(PID.TID 0000.0001) %MON ke_max                       =   1.6804338309658E-02
(PID.TID 0000.0001) %MON ke_mean                      =   2.0999425796991E-04
(PID.TID 0000.0001) %MON ke_vol                       =   1.3226782436723E+18
(PID.TID 0000.0001) %MON vort_r_min                   =  -6.7418030340224E-07
(PID.TID 0000.0001) %MON vort_r_max                   =   7.0045621277511E-07
(PID.TID 0000.0001) %MON vort_a_mean                  =  -2.5205768203312E-05
(PID.TID 0000.0001) %MON vort_a_sd                    =   7.3403483527047E-05
(PID.TID 0000.0001) %MON vort_p_mean                  =  -3.1758668057938E-05
(PID.TID 0000.0001) %MON vort_p_sd                    =   1.3126242810463E-04
(PID.TID 0000.0001) %MON surfExpan_theta_mean         =   9.0178173251619E-06
(PID.TID 0000.0001) %MON surfExpan_salt_mean          =  -1.5905274339046E-07
(PID.TID 0000.0001) // =======================================================
(PID.TID 0000.0001) // End MONITOR dynamic field statistics
(PID.TID 0000.0001) // =======================================================
time,SST,SSS,fu,fv,Q,E-P,i0,i1,a,b =   4.0608E+06 -5.0866E-01  3.4432E+01 -1.5286E-02 -1.6498E-02  2.3881E+02  0.0000E+00     2     3  6.6667E-02  9.3333E-01
time,fu0,fu1,fu =   4.0608E+06 -1.4435E-02 -2.7199E-02 -1.5286E-02  6.6667E-02  9.3333E-01
 cg2d: Sum(rhs),rhsMax =  -2.73531197692023E-13  6.73808714268623E+00
(PID.TID 0000.0001)                    cg2d_init_res =    4.16725834852379E-01
(PID.TID 0000.0001)                       cg2d_iters =    24
(PID.TID 0000.0001)                         cg2d_res =    7.13640763788426E-14
(PID.TID 0000.0001) // =======================================================
(PID.TID 0000.0001) // Begin MONITOR dynamic field statistics
(PID.TID 0000.0001) // =======================================================
(PID.TID 0000.0001) %MON time_tsnumber                =                    95
(PID.TID 0000.0001) %MON time_secondsf                =   4.1040000000000E+06
(PID.TID 0000.0001) %MON dynstat_eta_max              =   7.5854582091725E-01
(PID.TID 0000.0001) %MON dynstat_eta_min              =  -1.3845490539979E+00
(PID.TID 0000.0001) %MON dynstat_eta_mean             =   1.2465258648015E-17
(PID.TID 0000.0001) %MON dynstat_eta_sd               =   4.6308447692712E-01
(PID.TID 0000.0001) %MON dynstat_eta_del2             =   1.8593135673207E-02
(PID.TID 0000.0001) %MON dynstat_uvel_max             =   1.6420561416648E-01
(PID.TID 0000.0001) %MON dynstat_uvel_min             =  -1.5731220631135E-01
(PID.TID 0000.0001) %MON dynstat_uvel_mean            =   9.7737546259522E-04
(PID.TID 0000.0001) %MON dynstat_uvel_sd              =   1.5405217195260E-02
(PID.TID 0000.0001) %MON dynstat_uvel_del2            =   4.8572437782165E-03
(PID.TID 0000.0001) %MON dynstat_vvel_max             =   1.6685093518847E-01
(PID.TID 0000.0001) %MON dynstat_vvel_min             =  -1.5073508746008E-01
(PID.TID 0000.0001) %MON dynstat_vvel_mean            =   1.5331988276688E-04
(PID.TID 0000.0001) %MON dynstat_vvel_sd              =   1.4912417893216E-02
(PID.TID 0000.0001) %MON dynstat_vvel_del2            =   4.3577863053206E-03
(PID.TID 0000.0001) %MON dynstat_wvel_max             =   3.8631505226019E-04
(PID.TID 0000.0001) %MON dynstat_wvel_min             =  -2.0189367935604E-04
(PID.TID 0000.0001) %MON dynstat_wvel_mean            =   1.5361447477505E-22
(PID.TID 0000.0001) %MON dynstat_wvel_sd              =   2.1444130945067E-05
(PID.TID 0000.0001) %MON dynstat_wvel_del2            =   8.3929988989547E-06
(PID.TID 0000.0001) %MON dynstat_theta_max            =   2.9812625400230E+01
(PID.TID 0000.0001) %MON dynstat_theta_min            =  -1.9317129278481E+00
(PID.TID 0000.0001) %MON dynstat_theta_mean           =   3.5888501983439E+00
(PID.TID 0000.0001) %MON dynstat_theta_sd             =   4.3336577799419E+00
(PID.TID 0000.0001) %MON dynstat_theta_del2           =   1.2875316490902E-01
(PID.TID 0000.0001) %MON dynstat_salt_max             =   3.7390823421272E+01
(PID.TID 0000.0001) %MON dynstat_salt_min             =   2.9731875812594E+01
(PID.TID 0000.0001) %MON dynstat_salt_mean            =   3.4716004226560E+01
(PID.TID 0000.0001) %MON dynstat_salt_sd              =   2.9356245016798E-01
(PID.TID 0000.0001) %MON dynstat_salt_del2            =   2.3047703415270E-02
(PID.TID 0000.0001) %MON advcfl_uvel_max              =   2.9757552132461E-02
(PID.TID 0000.0001) %MON advcfl_vvel_max              =   1.6208230369920E-02
(PID.TID 0000.0001) %MON advcfl_wvel_max              =   9.9039955076256E-02
(PID.TID 0000.0001) %MON advcfl_W_hf_max              =   9.3570744912435E-02
(PID.TID 0000.0001) %MON pe_b_mean                    =   2.7441108226234E-04
(PID.TID 0000.0001) %MON ke_max                       =   1.6507193228769E-02
(PID.TID 0000.0001) %MON ke_mean                      =   2.0809916098991E-04
(PID.TID 0000.0001) %MON ke_vol                       =   1.3226782436723E+18
(PID.TID 0000.0001) %MON vort_r_min                   =  -6.6509603978536E-07
(PID.TID 0000.0001) %MON vort_r_max                   =   6.9433068592432E-07
(PID.TID 0000.0001) %MON vort_a_mean                  =  -2.5205768239386E-05
(PID.TID 0000.0001) %MON vort_a_sd                    =   7.3403477237996E-05
(PID.TID 0000.0001) %MON vort_p_mean                  =  -3.1758668103390E-05
(PID.TID 0000.0001) %MON vort_p_sd                    =   1.3126236847049E-04
(PID.TID 0000.0001) %MON surfExpan_theta_mean         =   8.5794969846182E-06
(PID.TID 0000.0001) %MON surfExpan_salt_mean          =  -1.3999231333579E-07
(PID.TID 0000.0001) // =======================================================
(PID.TID 0000.0001) // End MONITOR dynamic field statistics
(PID.TID 0000.0001) // =======================================================
time,SST,SSS,fu,fv,Q,E-P,i0,i1,a,b =   4.1040E+06 -5.0286E-01  3.4434E+01 -1.5498E-02 -1.6214E-02  2.3839E+02  0.0000E+00     2     3  8.3333E-02  9.1667E-01
time,fu0,fu1,fu =   4.1040E+06 -1.4435E-02 -2.7199E-02 -1.5498E-02  8.3333E-02  9.1667E-01
 cg2d: Sum(rhs),rhsMax =   5.77302095017274E-13  6.70168363280562E+00
(PID.TID 0000.0001)                    cg2d_init_res =    4.10693235214928E-01
(PID.TID 0000.0001)                       cg2d_iters =    24
(PID.TID 0000.0001)                         cg2d_res =    7.16653588881019E-14
(PID.TID 0000.0001) // =======================================================
(PID.TID 0000.0001) // Begin MONITOR dynamic field statistics
(PID.TID 0000.0001) // =======================================================
(PID.TID 0000.0001) %MON time_tsnumber                =                    96
(PID.TID 0000.0001) %MON time_secondsf                =   4.1472000000000E+06
(PID.TID 0000.0001) %MON dynstat_eta_max              =   7.5463242150198E-01
(PID.TID 0000.0001) %MON dynstat_eta_min              =  -1.3882484408135E+00
(PID.TID 0000.0001) %MON dynstat_eta_mean             =   2.9652216699067E-17
(PID.TID 0000.0001) %MON dynstat_eta_sd               =   4.6397845796164E-01
(PID.TID 0000.0001) %MON dynstat_eta_del2             =   1.8630326336054E-02
(PID.TID 0000.0001) %MON dynstat_uvel_max             =   1.6264508701367E-01
(PID.TID 0000.0001) %MON dynstat_uvel_min             =  -1.5681493576638E-01
(PID.TID 0000.0001) %MON dynstat_uvel_mean            =   9.6746441113459E-04
(PID.TID 0000.0001) %MON dynstat_uvel_sd              =   1.5337214285086E-02
(PID.TID 0000.0001) %MON dynstat_uvel_del2            =   4.8442144269368E-03
(PID.TID 0000.0001) %MON dynstat_vvel_max             =   1.6716089345851E-01
(PID.TID 0000.0001) %MON dynstat_vvel_min             =  -1.5040164699138E-01
(PID.TID 0000.0001) %MON dynstat_vvel_mean            =   2.5490698727162E-04
(PID.TID 0000.0001) %MON dynstat_vvel_sd              =   1.4864528435826E-02
(PID.TID 0000.0001) %MON dynstat_vvel_del2            =   4.3386057804143E-03
(PID.TID 0000.0001) %MON dynstat_wvel_max             =   3.8505176947926E-04
(PID.TID 0000.0001) %MON dynstat_wvel_min             =  -1.9904254968678E-04
(PID.TID 0000.0001) %MON dynstat_wvel_mean            =   1.5013791820584E-22
(PID.TID 0000.0001) %MON dynstat_wvel_sd              =   2.1323275737679E-05
(PID.TID 0000.0001) %MON dynstat_wvel_del2            =   8.3295764149527E-06
(PID.TID 0000.0001) %MON dynstat_theta_max            =   2.9814921522825E+01
(PID.TID 0000.0001) %MON dynstat_theta_min            =  -1.9314502183941E+00
(PID.TID 0000.0001) %MON dynstat_theta_mean           =   3.5888078955269E+00
(PID.TID 0000.0001) %MON dynstat_theta_sd             =   4.3336007572169E+00
(PID.TID 0000.0001) %MON dynstat_theta_del2           =   1.2879771472271E-01
(PID.TID 0000.0001) %MON dynstat_salt_max             =   3.7390413940736E+01
(PID.TID 0000.0001) %MON dynstat_salt_min             =   2.9730039888251E+01
(PID.TID 0000.0001) %MON dynstat_salt_mean            =   3.4716005260785E+01
(PID.TID 0000.0001) %MON dynstat_salt_sd              =   2.9353906501140E-01
(PID.TID 0000.0001) %MON dynstat_salt_del2            =   2.3027230668952E-02
(PID.TID 0000.0001) %MON advcfl_uvel_max              =   2.9667976226490E-02
(PID.TID 0000.0001) %MON advcfl_vvel_max              =   1.6238340330288E-02
(PID.TID 0000.0001) %MON advcfl_wvel_max              =   9.7361732731028E-02
(PID.TID 0000.0001) %MON advcfl_W_hf_max              =   9.1366601446907E-02
(PID.TID 0000.0001) %MON pe_b_mean                    =   2.7547160192125E-04
(PID.TID 0000.0001) %MON ke_max                       =   1.6196408943123E-02
(PID.TID 0000.0001) %MON ke_mean                      =   2.0651904734893E-04
(PID.TID 0000.0001) %MON ke_vol                       =   1.3226782436723E+18
(PID.TID 0000.0001) %MON vort_r_min                   =  -6.7303814885420E-07
(PID.TID 0000.0001) %MON vort_r_max                   =   6.8789310983429E-07
(PID.TID 0000.0001) %MON vort_a_mean                  =  -2.5205768275685E-05
(PID.TID 0000.0001) %MON vort_a_sd                    =   7.3403470816929E-05
(PID.TID 0000.0001) %MON vort_p_mean                  =  -3.1758668149125E-05
(PID.TID 0000.0001) %MON vort_p_sd                    =   1.3126230500345E-04
(PID.TID 0000.0001) %MON surfExpan_theta_mean         =   8.1557410579266E-06
(PID.TID 0000.0001) %MON surfExpan_salt_mean          =  -1.1783905812755E-07
(PID.TID 0000.0001) // =======================================================
(PID.TID 0000.0001) // End MONITOR dynamic field statistics
(PID.TID 0000.0001) // =======================================================
(PID.TID 0000.0001)  MDS_WRITE_RL_VEC: irec =  00000017   00066240
(PID.TID 0000.0001)  MDS_WRITE_RL_VEC: irec =  00000017   00066240
(PID.TID 0000.0001)  MDS_WRITE_RL_VEC: irec =  00000017   00066240
(PID.TID 0000.0001)  MDS_WRITE_RL_VEC: irec =  00000017   00066240
(PID.TID 0000.0001)  MDS_WRITE_RL_VEC: irec =  00000017   00066240
(PID.TID 0000.0001)  MDS_WRITE_RL_VEC: irec =  00000017   00066240
(PID.TID 0000.0001)  MDS_WRITE_RL_VEC: irec =  00000017   00066240
(PID.TID 0000.0001)  MDS_WRITE_RL_VEC: irec =  00000017   00066240
(PID.TID 0000.0001)  MDS_WRITE_RL_VEC: irec =  00000017   00066240
(PID.TID 0000.0001)  MDS_WRITE_RL_VEC: irec =  00000017   00066240
(PID.TID 0000.0001)  MDS_WRITE_RL_VEC: irec =  00000017   00066240
(PID.TID 0000.0001)  MDS_WRITE_RL_VEC: irec =  00000017   00004416
(PID.TID 0000.0001)  MDS_WRITE_RL_VEC: irec =  00000017   00066240
(PID.TID 0000.0001)  MDS_WRITE_RL_VEC: irec =  00000017   00004416
(PID.TID 0000.0001)  MDS_WRITE_RL_VEC: irec =  00000017   00004416
(PID.TID 0000.0001)  MDS_WRITE_RL_VEC: irec =  00000017   00004416
(PID.TID 0000.0001)  MDS_WRITE_RL_VEC: irec =  00000017   00004416
(PID.TID 0000.0001)  MDS_WRITE_RL_VEC: irec =  00000017   00004416
(PID.TID 0000.0001)  MDS_WRITE_RL_VEC: irec =  00000017   00004416
(PID.TID 0000.0001)  MDS_WRITE_RL_VEC: irec =  00000017   00004416
(PID.TID 0000.0001)  MDS_WRITE_RL_VEC: irec =  00000017   00004416
(PID.TID 0000.0001)  MDS_WRITE_RL_VEC: irec =  00000017   00004416
(PID.TID 0000.0001)  MDS_WRITE_RL_VEC: irec =  00000017   00004416
(PID.TID 0000.0001)  MDS_WRITE_RL_VEC: irec =  00000017   00004416
(PID.TID 0000.0001)  MDS_WRITE_RL_VEC: irec =  00000017   00004416
(PID.TID 0000.0001)  MDS_WRITE_RL_VEC: irec =  00000017   00004416
(PID.TID 0000.0001)  MDS_WRITE_RL_VEC: irec =  00000017   00004416
(PID.TID 0000.0001)  MDS_WRITE_RL_VEC: irec =  00000017   00004416
(PID.TID 0000.0001)  MDS_WRITE_RL_VEC: irec =  00000017   00004416
(PID.TID 0000.0001)  MDS_WRITE_RL_VEC: irec =  00000017   00004416
(PID.TID 0000.0001)  MDS_WRITE_RL_VEC: irec =  00000017   00004416
time,SST,SSS,fu,fv,Q,E-P,i0,i1,a,b =   4.1472E+06 -4.9706E-01  3.4437E+01 -1.5711E-02 -1.5930E-02  2.3797E+02  0.0000E+00     2     3  1.0000E-01  9.0000E-01
time,fu0,fu1,fu =   4.1472E+06 -1.4435E-02 -2.7199E-02 -1.5711E-02  1.0000E-01  9.0000E-01
 cg2d: Sum(rhs),rhsMax =  -1.88543625156967E-13  6.66306743647577E+00
(PID.TID 0000.0001)                    cg2d_init_res =    4.02429529498490E-01
(PID.TID 0000.0001)                       cg2d_iters =    24
(PID.TID 0000.0001)                         cg2d_res =    7.13283413442918E-14
(PID.TID 0000.0001) // =======================================================
(PID.TID 0000.0001) // Begin MONITOR dynamic field statistics
(PID.TID 0000.0001) // =======================================================
(PID.TID 0000.0001) %MON time_tsnumber                =                    97
(PID.TID 0000.0001) %MON time_secondsf                =   4.1904000000000E+06
(PID.TID 0000.0001) %MON dynstat_eta_max              =   7.5130216800454E-01
(PID.TID 0000.0001) %MON dynstat_eta_min              =  -1.3898715592183E+00
(PID.TID 0000.0001) %MON dynstat_eta_mean             =   9.3628870903897E-17
(PID.TID 0000.0001) %MON dynstat_eta_sd               =   4.6491987289481E-01
(PID.TID 0000.0001) %MON dynstat_eta_del2             =   1.8696224893849E-02
(PID.TID 0000.0001) %MON dynstat_uvel_max             =   1.6044860698595E-01
(PID.TID 0000.0001) %MON dynstat_uvel_min             =  -1.5623899160539E-01
(PID.TID 0000.0001) %MON dynstat_uvel_mean            =   9.5698613231912E-04
(PID.TID 0000.0001) %MON dynstat_uvel_sd              =   1.5294099723665E-02
(PID.TID 0000.0001) %MON dynstat_uvel_del2            =   4.8305779740306E-03
(PID.TID 0000.0001) %MON dynstat_vvel_max             =   1.6730297441742E-01
(PID.TID 0000.0001) %MON dynstat_vvel_min             =  -1.4995319731273E-01
(PID.TID 0000.0001) %MON dynstat_vvel_mean            =   3.5828378337917E-04
(PID.TID 0000.0001) %MON dynstat_vvel_sd              =   1.4813704991683E-02
(PID.TID 0000.0001) %MON dynstat_vvel_del2            =   4.3183919106371E-03
(PID.TID 0000.0001) %MON dynstat_wvel_max             =   3.8347631518834E-04
(PID.TID 0000.0001) %MON dynstat_wvel_min             =  -1.9731892667211E-04
(PID.TID 0000.0001) %MON dynstat_wvel_mean            =   3.9605514012829E-23
(PID.TID 0000.0001) %MON dynstat_wvel_sd              =   2.1197423496647E-05
(PID.TID 0000.0001) %MON dynstat_wvel_del2            =   8.2648020546951E-06
(PID.TID 0000.0001) %MON dynstat_theta_max            =   2.9817350842029E+01
(PID.TID 0000.0001) %MON dynstat_theta_min            =  -1.9311346050740E+00
(PID.TID 0000.0001) %MON dynstat_theta_mean           =   3.5887697417343E+00
(PID.TID 0000.0001) %MON dynstat_theta_sd             =   4.3335562887241E+00
(PID.TID 0000.0001) %MON dynstat_theta_del2           =   1.2885691757445E-01
(PID.TID 0000.0001) %MON dynstat_salt_max             =   3.7389999866061E+01
(PID.TID 0000.0001) %MON dynstat_salt_min             =   2.9728220804746E+01
(PID.TID 0000.0001) %MON dynstat_salt_mean            =   3.4716006029627E+01
(PID.TID 0000.0001) %MON dynstat_salt_sd              =   2.9351494596703E-01
(PID.TID 0000.0001) %MON dynstat_salt_del2            =   2.3001632104491E-02
(PID.TID 0000.0001) %MON advcfl_uvel_max              =   2.9573533774680E-02
(PID.TID 0000.0001) %MON advcfl_vvel_max              =   1.6252142356094E-02
(PID.TID 0000.0001) %MON advcfl_wvel_max              =   9.3810013028533E-02
(PID.TID 0000.0001) %MON advcfl_W_hf_max              =   8.7345654057399E-02
(PID.TID 0000.0001) %MON pe_b_mean                    =   2.7659060289815E-04
(PID.TID 0000.0001) %MON ke_max                       =   1.5876728554326E-02
(PID.TID 0000.0001) %MON ke_mean                      =   2.0526118621533E-04
(PID.TID 0000.0001) %MON ke_vol                       =   1.3226782436723E+18
(PID.TID 0000.0001) %MON vort_r_min                   =  -6.8922627931758E-07
(PID.TID 0000.0001) %MON vort_r_max                   =   6.8122669489181E-07
(PID.TID 0000.0001) %MON vort_a_mean                  =  -2.5205768312084E-05
(PID.TID 0000.0001) %MON vort_a_sd                    =   7.3403464380511E-05
(PID.TID 0000.0001) %MON vort_p_mean                  =  -3.1758668194988E-05
(PID.TID 0000.0001) %MON vort_p_sd                    =   1.3126223818075E-04
(PID.TID 0000.0001) %MON surfExpan_theta_mean         =   7.7471003767246E-06
(PID.TID 0000.0001) %MON surfExpan_salt_mean          =  -9.4622673442777E-08
(PID.TID 0000.0001) // =======================================================
(PID.TID 0000.0001) // End MONITOR dynamic field statistics
(PID.TID 0000.0001) // =======================================================
time,SST,SSS,fu,fv,Q,E-P,i0,i1,a,b =   4.1904E+06 -4.9126E-01  3.4440E+01 -1.5924E-02 -1.5646E-02  2.3755E+02  0.0000E+00     2     3  1.1667E-01  8.8333E-01
time,fu0,fu1,fu =   4.1904E+06 -1.4435E-02 -2.7199E-02 -1.5924E-02  1.1667E-01  8.8333E-01
 cg2d: Sum(rhs),rhsMax =  -1.81230030982249E-13  6.62464365836824E+00
(PID.TID 0000.0001)                    cg2d_init_res =    3.92361384185919E-01
(PID.TID 0000.0001)                       cg2d_iters =    24
(PID.TID 0000.0001)                         cg2d_res =    7.06016482795647E-14
(PID.TID 0000.0001) // =======================================================
(PID.TID 0000.0001) // Begin MONITOR dynamic field statistics
(PID.TID 0000.0001) // =======================================================
(PID.TID 0000.0001) %MON time_tsnumber                =                    98
(PID.TID 0000.0001) %MON time_secondsf                =   4.2336000000000E+06
(PID.TID 0000.0001) %MON dynstat_eta_max              =   7.7912943526075E-01
(PID.TID 0000.0001) %MON dynstat_eta_min              =  -1.3895076868743E+00
(PID.TID 0000.0001) %MON dynstat_eta_mean             =  -2.4498534809979E-17
(PID.TID 0000.0001) %MON dynstat_eta_sd               =   4.6590795003595E-01
(PID.TID 0000.0001) %MON dynstat_eta_del2             =   1.8756555981472E-02
(PID.TID 0000.0001) %MON dynstat_uvel_max             =   1.5765073669947E-01
(PID.TID 0000.0001) %MON dynstat_uvel_min             =  -1.5559606269158E-01
(PID.TID 0000.0001) %MON dynstat_uvel_mean            =   9.4632798804763E-04
(PID.TID 0000.0001) %MON dynstat_uvel_sd              =   1.5275912081345E-02
(PID.TID 0000.0001) %MON dynstat_uvel_del2            =   4.8153179371262E-03
(PID.TID 0000.0001) %MON dynstat_vvel_max             =   1.6727476240851E-01
(PID.TID 0000.0001) %MON dynstat_vvel_min             =  -1.4938818585798E-01
(PID.TID 0000.0001) %MON dynstat_vvel_mean            =   4.6291810922947E-04
(PID.TID 0000.0001) %MON dynstat_vvel_sd              =   1.4760380516012E-02
(PID.TID 0000.0001) %MON dynstat_vvel_del2            =   4.2980218578736E-03
(PID.TID 0000.0001) %MON dynstat_wvel_max             =   3.8157620897447E-04
(PID.TID 0000.0001) %MON dynstat_wvel_min             =  -1.9690816171716E-04
(PID.TID 0000.0001) %MON dynstat_wvel_mean            =  -1.3632223005626E-22
(PID.TID 0000.0001) %MON dynstat_wvel_sd              =   2.1068332385865E-05
(PID.TID 0000.0001) %MON dynstat_wvel_del2            =   8.1939731159958E-06
(PID.TID 0000.0001) %MON dynstat_theta_max            =   2.9819963662963E+01
(PID.TID 0000.0001) %MON dynstat_theta_min            =  -1.9307670892224E+00
(PID.TID 0000.0001) %MON dynstat_theta_mean           =   3.5887355101831E+00
(PID.TID 0000.0001) %MON dynstat_theta_sd             =   4.3335251436122E+00
(PID.TID 0000.0001) %MON dynstat_theta_del2           =   1.2884713436640E-01
(PID.TID 0000.0001) %MON dynstat_salt_max             =   3.7389583289397E+01
(PID.TID 0000.0001) %MON dynstat_salt_min             =   2.9726420739615E+01
(PID.TID 0000.0001) %MON dynstat_salt_mean            =   3.4716006551112E+01
(PID.TID 0000.0001) %MON dynstat_salt_sd              =   2.9349012152021E-01
(PID.TID 0000.0001) %MON dynstat_salt_del2            =   2.2974754085510E-02
(PID.TID 0000.0001) %MON advcfl_uvel_max              =   2.9473488542265E-02
(PID.TID 0000.0001) %MON advcfl_vvel_max              =   1.6249401785661E-02
(PID.TID 0000.0001) %MON advcfl_wvel_max              =   8.8509117616334E-02
(PID.TID 0000.0001) %MON advcfl_W_hf_max              =   8.1633318555061E-02
(PID.TID 0000.0001) %MON pe_b_mean                    =   2.7776750789947E-04
(PID.TID 0000.0001) %MON ke_max                       =   1.5683259503499E-02
(PID.TID 0000.0001) %MON ke_mean                      =   2.0432995379530E-04
(PID.TID 0000.0001) %MON ke_vol                       =   1.3226782436723E+18
(PID.TID 0000.0001) %MON vort_r_min                   =  -7.0510622614465E-07
(PID.TID 0000.0001) %MON vort_r_max                   =   6.7440573206273E-07
(PID.TID 0000.0001) %MON vort_a_mean                  =  -2.5205768348487E-05
(PID.TID 0000.0001) %MON vort_a_sd                    =   7.3403458041895E-05
(PID.TID 0000.0001) %MON vort_p_mean                  =  -3.1758668240855E-05
(PID.TID 0000.0001) %MON vort_p_sd                    =   1.3126216852641E-04
(PID.TID 0000.0001) %MON surfExpan_theta_mean         =   7.3534598345747E-06
(PID.TID 0000.0001) %MON surfExpan_salt_mean          =  -7.2250770802586E-08
(PID.TID 0000.0001) // =======================================================
(PID.TID 0000.0001) // End MONITOR dynamic field statistics
(PID.TID 0000.0001) // =======================================================
time,SST,SSS,fu,fv,Q,E-P,i0,i1,a,b =   4.2336E+06 -4.8546E-01  3.4442E+01 -1.6137E-02 -1.5361E-02  2.3714E+02  0.0000E+00     2     3  1.3333E-01  8.6667E-01
time,fu0,fu1,fu =   4.2336E+06 -1.4435E-02 -2.7199E-02 -1.6137E-02  1.3333E-01  8.6667E-01
 cg2d: Sum(rhs),rhsMax =  -8.32903190861600E-13  6.75051763676786E+00
(PID.TID 0000.0001)                    cg2d_init_res =    3.72014794646072E-01
(PID.TID 0000.0001)                       cg2d_iters =    24
(PID.TID 0000.0001)                         cg2d_res =    6.81351042160235E-14
(PID.TID 0000.0001) // =======================================================
(PID.TID 0000.0001) // Begin MONITOR dynamic field statistics
(PID.TID 0000.0001) // =======================================================
(PID.TID 0000.0001) %MON time_tsnumber                =                    99
(PID.TID 0000.0001) %MON time_secondsf                =   4.2768000000000E+06
(PID.TID 0000.0001) %MON dynstat_eta_max              =   8.0296695222493E-01
(PID.TID 0000.0001) %MON dynstat_eta_min              =  -1.3873237396272E+00
(PID.TID 0000.0001) %MON dynstat_eta_mean             =   7.8190705891819E-17
(PID.TID 0000.0001) %MON dynstat_eta_sd               =   4.6693903727096E-01
(PID.TID 0000.0001) %MON dynstat_eta_del2             =   1.8828488189058E-02
(PID.TID 0000.0001) %MON dynstat_uvel_max             =   1.5428999514361E-01
(PID.TID 0000.0001) %MON dynstat_uvel_min             =  -1.5489539909433E-01
(PID.TID 0000.0001) %MON dynstat_uvel_mean            =   9.3585519269026E-04
(PID.TID 0000.0001) %MON dynstat_uvel_sd              =   1.5282014687470E-02
(PID.TID 0000.0001) %MON dynstat_uvel_del2            =   4.7989073660111E-03
(PID.TID 0000.0001) %MON dynstat_vvel_max             =   1.6707365743938E-01
(PID.TID 0000.0001) %MON dynstat_vvel_min             =  -1.4870779153800E-01
(PID.TID 0000.0001) %MON dynstat_vvel_mean            =   5.6814085751465E-04
(PID.TID 0000.0001) %MON dynstat_vvel_sd              =   1.4705298062145E-02
(PID.TID 0000.0001) %MON dynstat_vvel_del2            =   4.2776179672663E-03
(PID.TID 0000.0001) %MON dynstat_wvel_max             =   3.7934338569629E-04
(PID.TID 0000.0001) %MON dynstat_wvel_min             =  -1.9636187882029E-04
(PID.TID 0000.0001) %MON dynstat_wvel_mean            =  -4.1908150357121E-22
(PID.TID 0000.0001) %MON dynstat_wvel_sd              =   2.0938110289250E-05
(PID.TID 0000.0001) %MON dynstat_wvel_del2            =   8.1189634938963E-06
(PID.TID 0000.0001) %MON dynstat_theta_max            =   2.9822800816651E+01
(PID.TID 0000.0001) %MON dynstat_theta_min            =  -1.9303399564889E+00
(PID.TID 0000.0001) %MON dynstat_theta_mean           =   3.5887050462583E+00
(PID.TID 0000.0001) %MON dynstat_theta_sd             =   4.3335070093732E+00
(PID.TID 0000.0001) %MON dynstat_theta_del2           =   1.2883196768061E-01
(PID.TID 0000.0001) %MON dynstat_salt_max             =   3.7389164839606E+01
(PID.TID 0000.0001) %MON dynstat_salt_min             =   2.9724641874442E+01
(PID.TID 0000.0001) %MON dynstat_salt_mean            =   3.4716006865917E+01
(PID.TID 0000.0001) %MON dynstat_salt_sd              =   2.9346445221934E-01
(PID.TID 0000.0001) %MON dynstat_salt_del2            =   2.2947860678733E-02
(PID.TID 0000.0001) %MON advcfl_uvel_max              =   2.9367040172671E-02
(PID.TID 0000.0001) %MON advcfl_vvel_max              =   1.6229866050578E-02
(PID.TID 0000.0001) %MON advcfl_wvel_max              =   8.1616072498574E-02
(PID.TID 0000.0001) %MON advcfl_W_hf_max              =   7.4386822647241E-02
(PID.TID 0000.0001) %MON pe_b_mean                    =   2.7899830658492E-04
(PID.TID 0000.0001) %MON ke_max                       =   1.5581506248218E-02
(PID.TID 0000.0001) %MON ke_mean                      =   2.0372577215232E-04
(PID.TID 0000.0001) %MON ke_vol                       =   1.3226782436723E+18
(PID.TID 0000.0001) %MON vort_r_min                   =  -7.2051852201810E-07
(PID.TID 0000.0001) %MON vort_r_max                   =   6.6749430176217E-07
(PID.TID 0000.0001) %MON vort_a_mean                  =  -2.5205768384827E-05
(PID.TID 0000.0001) %MON vort_a_sd                    =   7.3403451907473E-05
(PID.TID 0000.0001) %MON vort_p_mean                  =  -3.1758668286642E-05
(PID.TID 0000.0001) %MON vort_p_sd                    =   1.3126209659805E-04
(PID.TID 0000.0001) %MON surfExpan_theta_mean         =   6.9739154168049E-06
(PID.TID 0000.0001) %MON surfExpan_salt_mean          =  -5.2263607993830E-08
(PID.TID 0000.0001) // =======================================================
(PID.TID 0000.0001) // End MONITOR dynamic field statistics
(PID.TID 0000.0001) // =======================================================
time,SST,SSS,fu,fv,Q,E-P,i0,i1,a,b =   4.2768E+06 -4.7966E-01  3.4445E+01 -1.6349E-02 -1.5077E-02  2.3672E+02  0.0000E+00     2     3  1.5000E-01  8.5000E-01
time,fu0,fu1,fu =   4.2768E+06 -1.4435E-02 -2.7199E-02 -1.6349E-02  1.5000E-01  8.5000E-01
 cg2d: Sum(rhs),rhsMax =   1.35252919974960E-13  6.91710455346105E+00
(PID.TID 0000.0001)                    cg2d_init_res =    3.50442406096098E-01
(PID.TID 0000.0001)                       cg2d_iters =    24
(PID.TID 0000.0001)                         cg2d_res =    6.56674255455777E-14
(PID.TID 0000.0001) // =======================================================
(PID.TID 0000.0001) // Begin MONITOR dynamic field statistics
(PID.TID 0000.0001) // =======================================================
(PID.TID 0000.0001) %MON time_tsnumber                =                   100
(PID.TID 0000.0001) %MON time_secondsf                =   4.3200000000000E+06
(PID.TID 0000.0001) %MON dynstat_eta_max              =   8.2237361855636E-01
(PID.TID 0000.0001) %MON dynstat_eta_min              =  -1.3835476411231E+00
(PID.TID 0000.0001) %MON dynstat_eta_mean             =   7.9902467714889E-17
(PID.TID 0000.0001) %MON dynstat_eta_sd               =   4.6800753455628E-01
(PID.TID 0000.0001) %MON dynstat_eta_del2             =   1.8914423753784E-02
(PID.TID 0000.0001) %MON dynstat_uvel_max             =   1.5040824130417E-01
(PID.TID 0000.0001) %MON dynstat_uvel_min             =  -1.5414371739164E-01
(PID.TID 0000.0001) %MON dynstat_uvel_mean            =   9.2590370225996E-04
(PID.TID 0000.0001) %MON dynstat_uvel_sd              =   1.5311066732987E-02
(PID.TID 0000.0001) %MON dynstat_uvel_del2            =   4.7819416293520E-03
(PID.TID 0000.0001) %MON dynstat_vvel_max             =   1.6669696674564E-01
(PID.TID 0000.0001) %MON dynstat_vvel_min             =  -1.4791578940333E-01
(PID.TID 0000.0001) %MON dynstat_vvel_mean            =   6.7316971027756E-04
(PID.TID 0000.0001) %MON dynstat_vvel_sd              =   1.4649474452942E-02
(PID.TID 0000.0001) %MON dynstat_vvel_del2            =   4.2580559328452E-03
(PID.TID 0000.0001) %MON dynstat_wvel_max             =   3.7677457728506E-04
(PID.TID 0000.0001) %MON dynstat_wvel_min             =  -1.9567832343830E-04
(PID.TID 0000.0001) %MON dynstat_wvel_mean            =   8.5092915187538E-23
(PID.TID 0000.0001) %MON dynstat_wvel_sd              =   2.0809079312445E-05
(PID.TID 0000.0001) %MON dynstat_wvel_del2            =   8.0431037080446E-06
(PID.TID 0000.0001) %MON dynstat_theta_max            =   2.9825894016323E+01
(PID.TID 0000.0001) %MON dynstat_theta_min            =  -1.9298641008569E+00
(PID.TID 0000.0001) %MON dynstat_theta_mean           =   3.5886781998491E+00
(PID.TID 0000.0001) %MON dynstat_theta_sd             =   4.3335019631196E+00
(PID.TID 0000.0001) %MON dynstat_theta_del2           =   1.2880592370283E-01
(PID.TID 0000.0001) %MON dynstat_salt_max             =   3.7388745171571E+01
(PID.TID 0000.0001) %MON dynstat_salt_min             =   2.9722886340483E+01
(PID.TID 0000.0001) %MON dynstat_salt_mean            =   3.4716007026777E+01
(PID.TID 0000.0001) %MON dynstat_salt_sd              =   2.9343801156733E-01
(PID.TID 0000.0001) %MON dynstat_salt_del2            =   2.2919367621722E-02
(PID.TID 0000.0001) %MON advcfl_uvel_max              =   2.9253336493229E-02
(PID.TID 0000.0001) %MON advcfl_vvel_max              =   1.6193273570378E-02
(PID.TID 0000.0001) %MON advcfl_wvel_max              =   7.3317937000995E-02
(PID.TID 0000.0001) %MON advcfl_W_hf_max              =   6.5792491090379E-02
(PID.TID 0000.0001) %MON pe_b_mean                    =   2.8027663198043E-04
(PID.TID 0000.0001) %MON ke_max                       =   1.5468495255124E-02
(PID.TID 0000.0001) %MON ke_mean                      =   2.0344399725407E-04
(PID.TID 0000.0001) %MON ke_vol                       =   1.3226782436723E+18
(PID.TID 0000.0001) %MON vort_r_min                   =  -7.3531717683637E-07
(PID.TID 0000.0001) %MON vort_r_max                   =   6.6054554007673E-07
(PID.TID 0000.0001) %MON vort_a_mean                  =  -2.5205768421057E-05
(PID.TID 0000.0001) %MON vort_a_sd                    =   7.3403446074090E-05
(PID.TID 0000.0001) %MON vort_p_mean                  =  -3.1758668332292E-05
(PID.TID 0000.0001) %MON vort_p_sd                    =   1.3126202297279E-04
(PID.TID 0000.0001) %MON surfExpan_theta_mean         =   6.6066838420749E-06
(PID.TID 0000.0001) %MON surfExpan_salt_mean          =  -3.6092295377760E-08
(PID.TID 0000.0001) // =======================================================
(PID.TID 0000.0001) // End MONITOR dynamic field statistics
(PID.TID 0000.0001) // =======================================================
time,SST,SSS,fu,fv,Q,E-P,i0,i1,a,b =   4.3200E+06 -4.7386E-01  3.4447E+01 -1.6562E-02 -1.4793E-02  2.3630E+02  0.0000E+00     2     3  1.6667E-01  8.3333E-01
time,fu0,fu1,fu =   4.3200E+06 -1.4435E-02 -2.7199E-02 -1.6562E-02  1.6667E-01  8.3333E-01
 cg2d: Sum(rhs),rhsMax =   5.30631094619594E-13  7.04306579128819E+00
(PID.TID 0000.0001)                    cg2d_init_res =    3.32878869927694E-01
(PID.TID 0000.0001)                       cg2d_iters =    24
(PID.TID 0000.0001)                         cg2d_res =    6.40804451917818E-14
(PID.TID 0000.0001) // =======================================================
(PID.TID 0000.0001) // Begin MONITOR dynamic field statistics
(PID.TID 0000.0001) // =======================================================
(PID.TID 0000.0001) %MON time_tsnumber                =                   101
(PID.TID 0000.0001) %MON time_secondsf                =   4.3632000000000E+06
(PID.TID 0000.0001) %MON dynstat_eta_max              =   8.3706705518999E-01
(PID.TID 0000.0001) %MON dynstat_eta_min              =  -1.3784505207155E+00
(PID.TID 0000.0001) %MON dynstat_eta_mean             =   3.7661644804351E-17
(PID.TID 0000.0001) %MON dynstat_eta_sd               =   4.6910689206811E-01
(PID.TID 0000.0001) %MON dynstat_eta_del2             =   1.8980264717134E-02
(PID.TID 0000.0001) %MON dynstat_uvel_max             =   1.4848386104804E-01
(PID.TID 0000.0001) %MON dynstat_uvel_min             =  -1.5334525275438E-01
(PID.TID 0000.0001) %MON dynstat_uvel_mean            =   9.1677423444403E-04
(PID.TID 0000.0001) %MON dynstat_uvel_sd              =   1.5361038731862E-02
(PID.TID 0000.0001) %MON dynstat_uvel_del2            =   4.7645198253723E-03
(PID.TID 0000.0001) %MON dynstat_vvel_max             =   1.6614203030135E-01
(PID.TID 0000.0001) %MON dynstat_vvel_min             =  -1.4701841141302E-01
(PID.TID 0000.0001) %MON dynstat_vvel_mean            =   7.7713333784955E-04
(PID.TID 0000.0001) %MON dynstat_vvel_sd              =   1.4594138935167E-02
(PID.TID 0000.0001) %MON dynstat_vvel_del2            =   4.2409190435011E-03
(PID.TID 0000.0001) %MON dynstat_wvel_max             =   3.7387140862638E-04
(PID.TID 0000.0001) %MON dynstat_wvel_min             =  -1.9485785907015E-04
(PID.TID 0000.0001) %MON dynstat_wvel_mean            =  -8.5587218195309E-23
(PID.TID 0000.0001) %MON dynstat_wvel_sd              =   2.0683495815758E-05
(PID.TID 0000.0001) %MON dynstat_wvel_del2            =   7.9674712581802E-06
(PID.TID 0000.0001) %MON dynstat_theta_max            =   2.9829260960920E+01
(PID.TID 0000.0001) %MON dynstat_theta_min            =  -1.9293508716674E+00
(PID.TID 0000.0001) %MON dynstat_theta_mean           =   3.5886548729573E+00
(PID.TID 0000.0001) %MON dynstat_theta_sd             =   4.3335098506012E+00
(PID.TID 0000.0001) %MON dynstat_theta_del2           =   1.2877166245501E-01
(PID.TID 0000.0001) %MON dynstat_salt_max             =   3.7388324520871E+01
(PID.TID 0000.0001) %MON dynstat_salt_min             =   2.9721156175383E+01
(PID.TID 0000.0001) %MON dynstat_salt_mean            =   3.4716007097766E+01
(PID.TID 0000.0001) %MON dynstat_salt_sd              =   2.9341080224045E-01
(PID.TID 0000.0001) %MON dynstat_salt_del2            =   2.2891626152247E-02
(PID.TID 0000.0001) %MON advcfl_uvel_max              =   2.9131501506814E-02
(PID.TID 0000.0001) %MON advcfl_vvel_max              =   1.6139365944870E-02
(PID.TID 0000.0001) %MON advcfl_wvel_max              =   6.8343291774797E-02
(PID.TID 0000.0001) %MON advcfl_W_hf_max              =   6.3420072012146E-02
(PID.TID 0000.0001) %MON pe_b_mean                    =   2.8159492748830E-04
(PID.TID 0000.0001) %MON ke_max                       =   1.5407198851486E-02
(PID.TID 0000.0001) %MON ke_mean                      =   2.0347390991638E-04
(PID.TID 0000.0001) %MON ke_vol                       =   1.3226782436723E+18
(PID.TID 0000.0001) %MON vort_r_min                   =  -7.4937162228631E-07
(PID.TID 0000.0001) %MON vort_r_max                   =   6.5360144597849E-07
(PID.TID 0000.0001) %MON vort_a_mean                  =  -2.5205768457152E-05
(PID.TID 0000.0001) %MON vort_a_sd                    =   7.3403440626730E-05
(PID.TID 0000.0001) %MON vort_p_mean                  =  -3.1758668377770E-05
(PID.TID 0000.0001) %MON vort_p_sd                    =   1.3126194824921E-04
(PID.TID 0000.0001) %MON surfExpan_theta_mean         =   6.2493573292873E-06
(PID.TID 0000.0001) %MON surfExpan_salt_mean          =  -2.4929070057657E-08
(PID.TID 0000.0001) // =======================================================
(PID.TID 0000.0001) // End MONITOR dynamic field statistics
(PID.TID 0000.0001) // =======================================================
time,SST,SSS,fu,fv,Q,E-P,i0,i1,a,b =   4.3632E+06 -4.6807E-01  3.4450E+01 -1.6775E-02 -1.4508E-02  2.3588E+02  0.0000E+00     2     3  1.8333E-01  8.1667E-01
time,fu0,fu1,fu =   4.3632E+06 -1.4435E-02 -2.7199E-02 -1.6775E-02  1.8333E-01  8.1667E-01
 cg2d: Sum(rhs),rhsMax =   7.10681513638178E-14  7.12733430131964E+00
(PID.TID 0000.0001)                    cg2d_init_res =    3.19783149345170E-01
(PID.TID 0000.0001)                       cg2d_iters =    24
(PID.TID 0000.0001)                         cg2d_res =    6.30925753302066E-14
(PID.TID 0000.0001) // =======================================================
(PID.TID 0000.0001) // Begin MONITOR dynamic field statistics
(PID.TID 0000.0001) // =======================================================
(PID.TID 0000.0001) %MON time_tsnumber                =                   102
(PID.TID 0000.0001) %MON time_secondsf                =   4.4064000000000E+06
(PID.TID 0000.0001) %MON dynstat_eta_max              =   8.4692450505827E-01
(PID.TID 0000.0001) %MON dynstat_eta_min              =  -1.3723287478097E+00
(PID.TID 0000.0001) %MON dynstat_eta_mean             =  -2.5646963363582E-16
(PID.TID 0000.0001) %MON dynstat_eta_sd               =   4.7023056129714E-01
(PID.TID 0000.0001) %MON dynstat_eta_del2             =   1.9038232930755E-02
(PID.TID 0000.0001) %MON dynstat_uvel_max             =   1.5522111365445E-01
(PID.TID 0000.0001) %MON dynstat_uvel_min             =  -1.5250194684709E-01
(PID.TID 0000.0001) %MON dynstat_uvel_mean            =   9.0872539525560E-04
(PID.TID 0000.0001) %MON dynstat_uvel_sd              =   1.5429281333632E-02
(PID.TID 0000.0001) %MON dynstat_uvel_del2            =   4.7467863162673E-03
(PID.TID 0000.0001) %MON dynstat_vvel_max             =   1.6540636302835E-01
(PID.TID 0000.0001) %MON dynstat_vvel_min             =  -1.4602399036278E-01
(PID.TID 0000.0001) %MON dynstat_vvel_mean            =   8.7909906970709E-04
(PID.TID 0000.0001) %MON dynstat_vvel_sd              =   1.4540644831266E-02
(PID.TID 0000.0001) %MON dynstat_vvel_del2            =   4.2262937984278E-03
(PID.TID 0000.0001) %MON dynstat_wvel_max             =   3.7064093187311E-04
(PID.TID 0000.0001) %MON dynstat_wvel_min             =  -1.9390283609878E-04
(PID.TID 0000.0001) %MON dynstat_wvel_mean            =  -9.0417355605702E-23
(PID.TID 0000.0001) %MON dynstat_wvel_sd              =   2.0563291079735E-05
(PID.TID 0000.0001) %MON dynstat_wvel_del2            =   7.8985489661692E-06
(PID.TID 0000.0001) %MON dynstat_theta_max            =   2.9832902995728E+01
(PID.TID 0000.0001) %MON dynstat_theta_min            =  -1.9288068999533E+00
(PID.TID 0000.0001) %MON dynstat_theta_mean           =   3.5886349416764E+00
(PID.TID 0000.0001) %MON dynstat_theta_sd             =   4.3335304762417E+00
(PID.TID 0000.0001) %MON dynstat_theta_del2           =   1.2873199332224E-01
(PID.TID 0000.0001) %MON dynstat_salt_max             =   3.7387902756119E+01
(PID.TID 0000.0001) %MON dynstat_salt_min             =   2.9719453292931E+01
(PID.TID 0000.0001) %MON dynstat_salt_mean            =   3.4716007151651E+01
(PID.TID 0000.0001) %MON dynstat_salt_sd              =   2.9338279020226E-01
(PID.TID 0000.0001) %MON dynstat_salt_del2            =   2.2862797023149E-02
(PID.TID 0000.0001) %MON advcfl_uvel_max              =   2.9000679479345E-02
(PID.TID 0000.0001) %MON advcfl_vvel_max              =   1.6067901768641E-02
(PID.TID 0000.0001) %MON advcfl_wvel_max              =   6.8907848727305E-02
(PID.TID 0000.0001) %MON advcfl_W_hf_max              =   6.5483304899816E-02
(PID.TID 0000.0001) %MON pe_b_mean                    =   2.8294557283675E-04
(PID.TID 0000.0001) %MON ke_max                       =   1.5334532223450E-02
(PID.TID 0000.0001) %MON ke_mean                      =   2.0379796740644E-04
(PID.TID 0000.0001) %MON ke_vol                       =   1.3226782436723E+18
(PID.TID 0000.0001) %MON vort_r_min                   =  -7.6256815702562E-07
(PID.TID 0000.0001) %MON vort_r_max                   =   6.4669321468428E-07
(PID.TID 0000.0001) %MON vort_a_mean                  =  -2.5205768493097E-05
(PID.TID 0000.0001) %MON vort_a_sd                    =   7.3403435636196E-05
(PID.TID 0000.0001) %MON vort_p_mean                  =  -3.1758668423060E-05
(PID.TID 0000.0001) %MON vort_p_sd                    =   1.3126187301496E-04
(PID.TID 0000.0001) %MON surfExpan_theta_mean         =   5.8992495128966E-06
(PID.TID 0000.0001) %MON surfExpan_salt_mean          =  -1.9743687184406E-08
(PID.TID 0000.0001) // =======================================================
(PID.TID 0000.0001) // End MONITOR dynamic field statistics
(PID.TID 0000.0001) // =======================================================
(PID.TID 0000.0001)  MDS_WRITE_RL_VEC: irec =  00000018   00066240
(PID.TID 0000.0001)  MDS_WRITE_RL_VEC: irec =  00000018   00066240
(PID.TID 0000.0001)  MDS_WRITE_RL_VEC: irec =  00000018   00066240
(PID.TID 0000.0001)  MDS_WRITE_RL_VEC: irec =  00000018   00066240
(PID.TID 0000.0001)  MDS_WRITE_RL_VEC: irec =  00000018   00066240
(PID.TID 0000.0001)  MDS_WRITE_RL_VEC: irec =  00000018   00066240
(PID.TID 0000.0001)  MDS_WRITE_RL_VEC: irec =  00000018   00066240
(PID.TID 0000.0001)  MDS_WRITE_RL_VEC: irec =  00000018   00066240
(PID.TID 0000.0001)  MDS_WRITE_RL_VEC: irec =  00000018   00066240
(PID.TID 0000.0001)  MDS_WRITE_RL_VEC: irec =  00000018   00066240
(PID.TID 0000.0001)  MDS_WRITE_RL_VEC: irec =  00000018   00066240
(PID.TID 0000.0001)  MDS_WRITE_RL_VEC: irec =  00000018   00004416
(PID.TID 0000.0001)  MDS_WRITE_RL_VEC: irec =  00000018   00066240
(PID.TID 0000.0001)  MDS_WRITE_RL_VEC: irec =  00000018   00004416
(PID.TID 0000.0001)  MDS_WRITE_RL_VEC: irec =  00000018   00004416
(PID.TID 0000.0001)  MDS_WRITE_RL_VEC: irec =  00000018   00004416
(PID.TID 0000.0001)  MDS_WRITE_RL_VEC: irec =  00000018   00004416
(PID.TID 0000.0001)  MDS_WRITE_RL_VEC: irec =  00000018   00004416
(PID.TID 0000.0001)  MDS_WRITE_RL_VEC: irec =  00000018   00004416
(PID.TID 0000.0001)  MDS_WRITE_RL_VEC: irec =  00000018   00004416
(PID.TID 0000.0001)  MDS_WRITE_RL_VEC: irec =  00000018   00004416
(PID.TID 0000.0001)  MDS_WRITE_RL_VEC: irec =  00000018   00004416
(PID.TID 0000.0001)  MDS_WRITE_RL_VEC: irec =  00000018   00004416
(PID.TID 0000.0001)  MDS_WRITE_RL_VEC: irec =  00000018   00004416
(PID.TID 0000.0001)  MDS_WRITE_RL_VEC: irec =  00000018   00004416
(PID.TID 0000.0001)  MDS_WRITE_RL_VEC: irec =  00000018   00004416
(PID.TID 0000.0001)  MDS_WRITE_RL_VEC: irec =  00000018   00004416
(PID.TID 0000.0001)  MDS_WRITE_RL_VEC: irec =  00000018   00004416
(PID.TID 0000.0001)  MDS_WRITE_RL_VEC: irec =  00000018   00004416
(PID.TID 0000.0001)  MDS_WRITE_RL_VEC: irec =  00000018   00004416
(PID.TID 0000.0001)  MDS_WRITE_RL_VEC: irec =  00000018   00004416
time,SST,SSS,fu,fv,Q,E-P,i0,i1,a,b =   4.4064E+06 -4.6227E-01  3.4453E+01 -1.6988E-02 -1.4224E-02  2.3546E+02  0.0000E+00     2     3  2.0000E-01  8.0000E-01
time,fu0,fu1,fu =   4.4064E+06 -1.4435E-02 -2.7199E-02 -1.6988E-02  2.0000E-01  8.0000E-01
 cg2d: Sum(rhs),rhsMax =  -4.53942439193611E-14  7.17018426194841E+00
(PID.TID 0000.0001)                    cg2d_init_res =    3.11468171013772E-01
(PID.TID 0000.0001)                       cg2d_iters =    24
(PID.TID 0000.0001)                         cg2d_res =    6.21261818206455E-14
(PID.TID 0000.0001) // =======================================================
(PID.TID 0000.0001) // Begin MONITOR dynamic field statistics
(PID.TID 0000.0001) // =======================================================
(PID.TID 0000.0001) %MON time_tsnumber                =                   103
(PID.TID 0000.0001) %MON time_secondsf                =   4.4496000000000E+06
(PID.TID 0000.0001) %MON dynstat_eta_max              =   8.5197889077153E-01
(PID.TID 0000.0001) %MON dynstat_eta_min              =  -1.3654864765889E+00
(PID.TID 0000.0001) %MON dynstat_eta_mean             =  -1.8180842858755E-16
(PID.TID 0000.0001) %MON dynstat_eta_sd               =   4.7137275891745E-01
(PID.TID 0000.0001) %MON dynstat_eta_del2             =   1.9091443524088E-02
(PID.TID 0000.0001) %MON dynstat_uvel_max             =   1.6188541088672E-01
(PID.TID 0000.0001) %MON dynstat_uvel_min             =  -1.5161375286041E-01
(PID.TID 0000.0001) %MON dynstat_uvel_mean            =   9.0197190213168E-04
(PID.TID 0000.0001) %MON dynstat_uvel_sd              =   1.5512639431523E-02
(PID.TID 0000.0001) %MON dynstat_uvel_del2            =   4.7306307882191E-03
(PID.TID 0000.0001) %MON dynstat_vvel_max             =   1.6448780191604E-01
(PID.TID 0000.0001) %MON dynstat_vvel_min             =  -1.4494273507100E-01
(PID.TID 0000.0001) %MON dynstat_vvel_mean            =   9.7810776541175E-04
(PID.TID 0000.0001) %MON dynstat_vvel_sd              =   1.4490367206392E-02
(PID.TID 0000.0001) %MON dynstat_vvel_del2            =   4.2142507959302E-03
(PID.TID 0000.0001) %MON dynstat_wvel_max             =   3.6709501528953E-04
(PID.TID 0000.0001) %MON dynstat_wvel_min             =  -1.9281723694767E-04
(PID.TID 0000.0001) %MON dynstat_wvel_mean            =  -1.7718298061348E-22
(PID.TID 0000.0001) %MON dynstat_wvel_sd              =   2.0449953713751E-05
(PID.TID 0000.0001) %MON dynstat_wvel_del2            =   7.8373828950693E-06
(PID.TID 0000.0001) %MON dynstat_theta_max            =   2.9836902319108E+01
(PID.TID 0000.0001) %MON dynstat_theta_min            =  -1.9282383826357E+00
(PID.TID 0000.0001) %MON dynstat_theta_mean           =   3.5886183546193E+00
(PID.TID 0000.0001) %MON dynstat_theta_sd             =   4.3335639360212E+00
(PID.TID 0000.0001) %MON dynstat_theta_del2           =   1.2867531828686E-01
(PID.TID 0000.0001) %MON dynstat_salt_max             =   3.7387479450086E+01
(PID.TID 0000.0001) %MON dynstat_salt_min             =   2.9717779464645E+01
(PID.TID 0000.0001) %MON dynstat_salt_mean            =   3.4716007267652E+01
(PID.TID 0000.0001) %MON dynstat_salt_sd              =   2.9335407445973E-01
(PID.TID 0000.0001) %MON dynstat_salt_del2            =   2.2832690639161E-02
(PID.TID 0000.0001) %MON advcfl_uvel_max              =   2.8860070350806E-02
(PID.TID 0000.0001) %MON advcfl_vvel_max              =   1.5978670922553E-02
(PID.TID 0000.0001) %MON advcfl_wvel_max              =   6.8820441868540E-02
(PID.TID 0000.0001) %MON advcfl_W_hf_max              =   6.7096139368737E-02
(PID.TID 0000.0001) %MON pe_b_mean                    =   2.8432180097260E-04
(PID.TID 0000.0001) %MON ke_max                       =   1.5249804750505E-02
(PID.TID 0000.0001) %MON ke_mean                      =   2.0439147704547E-04
(PID.TID 0000.0001) %MON ke_vol                       =   1.3226782436723E+18
(PID.TID 0000.0001) %MON vort_r_min                   =  -7.7481089662418E-07
(PID.TID 0000.0001) %MON vort_r_max                   =   6.3984206010497E-07
(PID.TID 0000.0001) %MON vort_a_mean                  =  -2.5205768528889E-05
(PID.TID 0000.0001) %MON vort_a_sd                    =   7.3403431157909E-05
(PID.TID 0000.0001) %MON vort_p_mean                  =  -3.1758668468157E-05
(PID.TID 0000.0001) %MON vort_p_sd                    =   1.3126179786716E-04
(PID.TID 0000.0001) %MON surfExpan_theta_mean         =   5.5552312504554E-06
(PID.TID 0000.0001) %MON surfExpan_salt_mean          =  -2.0839492994954E-08
(PID.TID 0000.0001) // =======================================================
(PID.TID 0000.0001) // End MONITOR dynamic field statistics
(PID.TID 0000.0001) // =======================================================
time,SST,SSS,fu,fv,Q,E-P,i0,i1,a,b =   4.4496E+06 -4.5647E-01  3.4455E+01 -1.7200E-02 -1.3940E-02  2.3505E+02  0.0000E+00     2     3  2.1667E-01  7.8333E-01
time,fu0,fu1,fu =   4.4496E+06 -1.4435E-02 -2.7199E-02 -1.7200E-02  2.1667E-01  7.8333E-01
 cg2d: Sum(rhs),rhsMax =  -1.91513471747840E-14  7.17315886050668E+00
(PID.TID 0000.0001)                    cg2d_init_res =    3.07999266913410E-01
(PID.TID 0000.0001)                       cg2d_iters =    24
(PID.TID 0000.0001)                         cg2d_res =    5.77459637888134E-14
(PID.TID 0000.0001) // =======================================================
(PID.TID 0000.0001) // Begin MONITOR dynamic field statistics
(PID.TID 0000.0001) // =======================================================
(PID.TID 0000.0001) %MON time_tsnumber                =                   104
(PID.TID 0000.0001) %MON time_secondsf                =   4.4928000000000E+06
(PID.TID 0000.0001) %MON dynstat_eta_max              =   8.5241023920232E-01
(PID.TID 0000.0001) %MON dynstat_eta_min              =  -1.3729011820640E+00
(PID.TID 0000.0001) %MON dynstat_eta_mean             =   1.9067767253813E-16
(PID.TID 0000.0001) %MON dynstat_eta_sd               =   4.7252900152239E-01
(PID.TID 0000.0001) %MON dynstat_eta_del2             =   1.9132592450789E-02
(PID.TID 0000.0001) %MON dynstat_uvel_max             =   1.6836053143640E-01
(PID.TID 0000.0001) %MON dynstat_uvel_min             =  -1.5067903515668E-01
(PID.TID 0000.0001) %MON dynstat_uvel_mean            =   8.9667882454318E-04
(PID.TID 0000.0001) %MON dynstat_uvel_sd              =   1.5607608341550E-02
(PID.TID 0000.0001) %MON dynstat_uvel_del2            =   4.7164669250385E-03
(PID.TID 0000.0001) %MON dynstat_vvel_max             =   1.6338465276157E-01
(PID.TID 0000.0001) %MON dynstat_vvel_min             =  -1.4378632912200E-01
(PID.TID 0000.0001) %MON dynstat_vvel_mean            =   1.0732038229756E-03
(PID.TID 0000.0001) %MON dynstat_vvel_sd              =   1.4444587321879E-02
(PID.TID 0000.0001) %MON dynstat_vvel_del2            =   4.2044580787956E-03
(PID.TID 0000.0001) %MON dynstat_wvel_max             =   3.6325011506081E-04
(PID.TID 0000.0001) %MON dynstat_wvel_min             =  -1.9160678797179E-04
(PID.TID 0000.0001) %MON dynstat_wvel_mean            =  -2.8077274335895E-23
(PID.TID 0000.0001) %MON dynstat_wvel_sd              =   2.0344215611060E-05
(PID.TID 0000.0001) %MON dynstat_wvel_del2            =   7.7820022213174E-06
(PID.TID 0000.0001) %MON dynstat_theta_max            =   2.9841194093419E+01
(PID.TID 0000.0001) %MON dynstat_theta_min            =  -1.9276514962727E+00
(PID.TID 0000.0001) %MON dynstat_theta_mean           =   3.5886050969250E+00
(PID.TID 0000.0001) %MON dynstat_theta_sd             =   4.3336100680458E+00
(PID.TID 0000.0001) %MON dynstat_theta_del2           =   1.2861027296821E-01
(PID.TID 0000.0001) %MON dynstat_salt_max             =   3.7387053969569E+01
(PID.TID 0000.0001) %MON dynstat_salt_min             =   2.9716136313584E+01
(PID.TID 0000.0001) %MON dynstat_salt_mean            =   3.4716007520237E+01
(PID.TID 0000.0001) %MON dynstat_salt_sd              =   2.9332475712118E-01
(PID.TID 0000.0001) %MON dynstat_salt_del2            =   2.2802807524786E-02
(PID.TID 0000.0001) %MON advcfl_uvel_max              =   2.8708963913545E-02
(PID.TID 0000.0001) %MON advcfl_vvel_max              =   1.5871508828390E-02
(PID.TID 0000.0001) %MON advcfl_wvel_max              =   6.8123349726094E-02
(PID.TID 0000.0001) %MON advcfl_W_hf_max              =   6.8232886073620E-02
(PID.TID 0000.0001) %MON pe_b_mean                    =   2.8571835250072E-04
(PID.TID 0000.0001) %MON ke_max                       =   1.5152392538350E-02
(PID.TID 0000.0001) %MON ke_mean                      =   2.0522274791707E-04
(PID.TID 0000.0001) %MON ke_vol                       =   1.3226782436723E+18
(PID.TID 0000.0001) %MON vort_r_min                   =  -7.8602224784986E-07
(PID.TID 0000.0001) %MON vort_r_max                   =   6.3306044768805E-07
(PID.TID 0000.0001) %MON vort_a_mean                  =  -2.5205768564534E-05
(PID.TID 0000.0001) %MON vort_a_sd                    =   7.3403427230461E-05
(PID.TID 0000.0001) %MON vort_p_mean                  =  -3.1758668513069E-05
(PID.TID 0000.0001) %MON vort_p_sd                    =   1.3126172336390E-04
(PID.TID 0000.0001) %MON surfExpan_theta_mean         =   5.2146803209440E-06
(PID.TID 0000.0001) %MON surfExpan_salt_mean          =  -2.8644314172200E-08
(PID.TID 0000.0001) // =======================================================
(PID.TID 0000.0001) // End MONITOR dynamic field statistics
(PID.TID 0000.0001) // =======================================================
time,SST,SSS,fu,fv,Q,E-P,i0,i1,a,b =   4.4928E+06 -4.5067E-01  3.4458E+01 -1.7413E-02 -1.3655E-02  2.3463E+02  0.0000E+00     2     3  2.3333E-01  7.6667E-01
time,fu0,fu1,fu =   4.4928E+06 -1.4435E-02 -2.7199E-02 -1.7413E-02  2.3333E-01  7.6667E-01
 cg2d: Sum(rhs),rhsMax =   1.01557651177586E-13  7.13896046358100E+00
(PID.TID 0000.0001)                    cg2d_init_res =    3.09116097953190E-01
(PID.TID 0000.0001)                       cg2d_iters =    24
(PID.TID 0000.0001)                         cg2d_res =    5.33335269944084E-14
(PID.TID 0000.0001) // =======================================================
(PID.TID 0000.0001) // Begin MONITOR dynamic field statistics
(PID.TID 0000.0001) // =======================================================
(PID.TID 0000.0001) %MON time_tsnumber                =                   105
(PID.TID 0000.0001) %MON time_secondsf                =   4.5360000000000E+06
(PID.TID 0000.0001) %MON dynstat_eta_max              =   8.4853276047010E-01
(PID.TID 0000.0001) %MON dynstat_eta_min              =  -1.3876067731383E+00
(PID.TID 0000.0001) %MON dynstat_eta_mean             =  -9.4047787613425E-17
(PID.TID 0000.0001) %MON dynstat_eta_sd               =   4.7369631679199E-01
(PID.TID 0000.0001) %MON dynstat_eta_del2             =   1.9132217392263E-02
(PID.TID 0000.0001) %MON dynstat_uvel_max             =   1.7453506289688E-01
(PID.TID 0000.0001) %MON dynstat_uvel_min             =  -1.4969497649237E-01
(PID.TID 0000.0001) %MON dynstat_uvel_mean            =   8.9296057001979E-04
(PID.TID 0000.0001) %MON dynstat_uvel_sd              =   1.5710509868519E-02
(PID.TID 0000.0001) %MON dynstat_uvel_del2            =   4.7030447606277E-03
(PID.TID 0000.0001) %MON dynstat_vvel_max             =   1.6209584301535E-01
(PID.TID 0000.0001) %MON dynstat_vvel_min             =  -1.4256749503083E-01
(PID.TID 0000.0001) %MON dynstat_vvel_mean            =   1.1634684499593E-03
(PID.TID 0000.0001) %MON dynstat_vvel_sd              =   1.4404385580984E-02
(PID.TID 0000.0001) %MON dynstat_vvel_del2            =   4.1968172550961E-03
(PID.TID 0000.0001) %MON dynstat_wvel_max             =   3.5912684767463E-04
(PID.TID 0000.0001) %MON dynstat_wvel_min             =  -1.9027851600893E-04
(PID.TID 0000.0001) %MON dynstat_wvel_mean            =   5.1801680692012E-22
(PID.TID 0000.0001) %MON dynstat_wvel_sd              =   2.0246079133816E-05
(PID.TID 0000.0001) %MON dynstat_wvel_del2            =   7.7292730289229E-06
(PID.TID 0000.0001) %MON dynstat_theta_max            =   2.9845722872273E+01
(PID.TID 0000.0001) %MON dynstat_theta_min            =  -1.9270545397289E+00
(PID.TID 0000.0001) %MON dynstat_theta_mean           =   3.5885951194348E+00
(PID.TID 0000.0001) %MON dynstat_theta_sd             =   4.3336687997327E+00
(PID.TID 0000.0001) %MON dynstat_theta_del2           =   1.2853766625119E-01
(PID.TID 0000.0001) %MON dynstat_salt_max             =   3.7386625574217E+01
(PID.TID 0000.0001) %MON dynstat_salt_min             =   2.9714525300183E+01
(PID.TID 0000.0001) %MON dynstat_salt_mean            =   3.4716007986684E+01
(PID.TID 0000.0001) %MON dynstat_salt_sd              =   2.9329485654865E-01
(PID.TID 0000.0001) %MON dynstat_salt_del2            =   2.2771992535697E-02
(PID.TID 0000.0001) %MON advcfl_uvel_max              =   2.8845027484730E-02
(PID.TID 0000.0001) %MON advcfl_vvel_max              =   1.5746311296556E-02
(PID.TID 0000.0001) %MON advcfl_wvel_max              =   6.6865259813675E-02
(PID.TID 0000.0001) %MON advcfl_W_hf_max              =   6.8865995735653E-02
(PID.TID 0000.0001) %MON pe_b_mean                    =   2.8713174873888E-04
(PID.TID 0000.0001) %MON ke_max                       =   1.5041760859648E-02
(PID.TID 0000.0001) %MON ke_mean                      =   2.0625380076618E-04
(PID.TID 0000.0001) %MON ke_vol                       =   1.3226782436723E+18
(PID.TID 0000.0001) %MON vort_r_min                   =  -7.9614296844858E-07
(PID.TID 0000.0001) %MON vort_r_max                   =   6.2635353062916E-07
(PID.TID 0000.0001) %MON vort_a_mean                  =  -2.5205768600035E-05
(PID.TID 0000.0001) %MON vort_a_sd                    =   7.3403423875364E-05
(PID.TID 0000.0001) %MON vort_p_mean                  =  -3.1758668557799E-05
(PID.TID 0000.0001) %MON vort_p_sd                    =   1.3126165004206E-04
(PID.TID 0000.0001) %MON surfExpan_theta_mean         =   4.8759414753819E-06
(PID.TID 0000.0001) %MON surfExpan_salt_mean          =  -4.3228971070659E-08
(PID.TID 0000.0001) // =======================================================
(PID.TID 0000.0001) // End MONITOR dynamic field statistics
(PID.TID 0000.0001) // =======================================================
time,SST,SSS,fu,fv,Q,E-P,i0,i1,a,b =   4.5360E+06 -4.4487E-01  3.4461E+01 -1.7626E-02 -1.3371E-02  2.3421E+02  0.0000E+00     2     3  2.5000E-01  7.5000E-01
time,fu0,fu1,fu =   4.5360E+06 -1.4435E-02 -2.7199E-02 -1.7626E-02  2.5000E-01  7.5000E-01
 cg2d: Sum(rhs),rhsMax =   2.04447569984723E-13  7.07130417052424E+00
(PID.TID 0000.0001)                    cg2d_init_res =    3.14225874083156E-01
(PID.TID 0000.0001)                       cg2d_iters =    24
(PID.TID 0000.0001)                         cg2d_res =    6.29456953335054E-14
(PID.TID 0000.0001) // =======================================================
(PID.TID 0000.0001) // Begin MONITOR dynamic field statistics
(PID.TID 0000.0001) // =======================================================
(PID.TID 0000.0001) %MON time_tsnumber                =                   106
(PID.TID 0000.0001) %MON time_secondsf                =   4.5792000000000E+06
(PID.TID 0000.0001) %MON dynstat_eta_max              =   8.4077771312607E-01
(PID.TID 0000.0001) %MON dynstat_eta_min              =  -1.4012121809223E+00
(PID.TID 0000.0001) %MON dynstat_eta_mean             =   3.0654432925772E-16
(PID.TID 0000.0001) %MON dynstat_eta_sd               =   4.7487314637262E-01
(PID.TID 0000.0001) %MON dynstat_eta_del2             =   1.9114299814691E-02
(PID.TID 0000.0001) %MON dynstat_uvel_max             =   1.8030450593665E-01
(PID.TID 0000.0001) %MON dynstat_uvel_min             =  -1.4865812153564E-01
(PID.TID 0000.0001) %MON dynstat_uvel_mean            =   8.9088018560347E-04
(PID.TID 0000.0001) %MON dynstat_uvel_sd              =   1.5817680885332E-02
(PID.TID 0000.0001) %MON dynstat_uvel_del2            =   4.6914394706060E-03
(PID.TID 0000.0001) %MON dynstat_vvel_max             =   1.6062100371344E-01
(PID.TID 0000.0001) %MON dynstat_vvel_min             =  -1.4129952930700E-01
(PID.TID 0000.0001) %MON dynstat_vvel_mean            =   1.2480503888409E-03
(PID.TID 0000.0001) %MON dynstat_vvel_sd              =   1.4370545662837E-02
(PID.TID 0000.0001) %MON dynstat_vvel_del2            =   4.1894274532697E-03
(PID.TID 0000.0001) %MON dynstat_wvel_max             =   3.5474953798867E-04
(PID.TID 0000.0001) %MON dynstat_wvel_min             =  -1.8884079215950E-04
(PID.TID 0000.0001) %MON dynstat_wvel_mean            =   1.8001629537171E-22
(PID.TID 0000.0001) %MON dynstat_wvel_sd              =   2.0154842510977E-05
(PID.TID 0000.0001) %MON dynstat_wvel_del2            =   7.6816216649637E-06
(PID.TID 0000.0001) %MON dynstat_theta_max            =   2.9850424702669E+01
(PID.TID 0000.0001) %MON dynstat_theta_min            =  -1.9264550122612E+00
(PID.TID 0000.0001) %MON dynstat_theta_mean           =   3.5885884099380E+00
(PID.TID 0000.0001) %MON dynstat_theta_sd             =   4.3337398869592E+00
(PID.TID 0000.0001) %MON dynstat_theta_del2           =   1.2845443457694E-01
(PID.TID 0000.0001) %MON dynstat_salt_max             =   3.7386193537834E+01
(PID.TID 0000.0001) %MON dynstat_salt_min             =   2.9712947764895E+01
(PID.TID 0000.0001) %MON dynstat_salt_mean            =   3.4716008740015E+01
(PID.TID 0000.0001) %MON dynstat_salt_sd              =   2.9326432927330E-01
(PID.TID 0000.0001) %MON dynstat_salt_del2            =   2.2741767278553E-02
(PID.TID 0000.0001) %MON advcfl_uvel_max              =   2.9798530696587E-02
(PID.TID 0000.0001) %MON advcfl_vvel_max              =   1.5603042485165E-02
(PID.TID 0000.0001) %MON advcfl_wvel_max              =   6.5100456663879E-02
(PID.TID 0000.0001) %MON advcfl_W_hf_max              =   6.8975733457912E-02
(PID.TID 0000.0001) %MON pe_b_mean                    =   2.8856019503046E-04
(PID.TID 0000.0001) %MON ke_max                       =   1.5360201557549E-02
(PID.TID 0000.0001) %MON ke_mean                      =   2.0744162024754E-04
(PID.TID 0000.0001) %MON ke_vol                       =   1.3226782436723E+18
(PID.TID 0000.0001) %MON vort_r_min                   =  -8.0513187438573E-07
(PID.TID 0000.0001) %MON vort_r_max                   =   6.1972092091596E-07
(PID.TID 0000.0001) %MON vort_a_mean                  =  -2.5205768635391E-05
(PID.TID 0000.0001) %MON vort_a_sd                    =   7.3403421097004E-05
(PID.TID 0000.0001) %MON vort_p_mean                  =  -3.1758668602347E-05
(PID.TID 0000.0001) %MON vort_p_sd                    =   1.3126157839659E-04
(PID.TID 0000.0001) %MON surfExpan_theta_mean         =   4.5384466040773E-06
(PID.TID 0000.0001) %MON surfExpan_salt_mean          =  -6.4353662316386E-08
(PID.TID 0000.0001) // =======================================================
(PID.TID 0000.0001) // End MONITOR dynamic field statistics
(PID.TID 0000.0001) // =======================================================
time,SST,SSS,fu,fv,Q,E-P,i0,i1,a,b =   4.5792E+06 -4.3907E-01  3.4463E+01 -1.7838E-02 -1.3087E-02  2.3379E+02  0.0000E+00     2     3  2.6667E-01  7.3333E-01
time,fu0,fu1,fu =   4.5792E+06 -1.4435E-02 -2.7199E-02 -1.7838E-02  2.6667E-01  7.3333E-01
 cg2d: Sum(rhs),rhsMax =   1.47271084216527E-13  6.97474689469139E+00
(PID.TID 0000.0001)                    cg2d_init_res =    3.22463574105968E-01
(PID.TID 0000.0001)                       cg2d_iters =    24
(PID.TID 0000.0001)                         cg2d_res =    6.48014057005891E-14
(PID.TID 0000.0001) // =======================================================
(PID.TID 0000.0001) // Begin MONITOR dynamic field statistics
(PID.TID 0000.0001) // =======================================================
(PID.TID 0000.0001) %MON time_tsnumber                =                   107
(PID.TID 0000.0001) %MON time_secondsf                =   4.6224000000000E+06
(PID.TID 0000.0001) %MON dynstat_eta_max              =   8.2967349201309E-01
(PID.TID 0000.0001) %MON dynstat_eta_min              =  -1.4133364378797E+00
(PID.TID 0000.0001) %MON dynstat_eta_mean             =   2.1230160868810E-16
(PID.TID 0000.0001) %MON dynstat_eta_sd               =   4.7605897919283E-01
(PID.TID 0000.0001) %MON dynstat_eta_del2             =   1.9084195979312E-02
(PID.TID 0000.0001) %MON dynstat_uvel_max             =   1.8557320342950E-01
(PID.TID 0000.0001) %MON dynstat_uvel_min             =  -1.4756498903232E-01
(PID.TID 0000.0001) %MON dynstat_uvel_mean            =   8.9044838211699E-04
(PID.TID 0000.0001) %MON dynstat_uvel_sd              =   1.5925654356788E-02
(PID.TID 0000.0001) %MON dynstat_uvel_del2            =   4.6814548313724E-03
(PID.TID 0000.0001) %MON dynstat_vvel_max             =   1.6070231157419E-01
(PID.TID 0000.0001) %MON dynstat_vvel_min             =  -1.3999584655098E-01
(PID.TID 0000.0001) %MON dynstat_vvel_mean            =   1.3261926538734E-03
(PID.TID 0000.0001) %MON dynstat_vvel_sd              =   1.4343480296162E-02
(PID.TID 0000.0001) %MON dynstat_vvel_del2            =   4.1818916837011E-03
(PID.TID 0000.0001) %MON dynstat_wvel_max             =   3.5014561209124E-04
(PID.TID 0000.0001) %MON dynstat_wvel_min             =  -1.8730268962656E-04
(PID.TID 0000.0001) %MON dynstat_wvel_mean            =  -6.6314759934042E-22
(PID.TID 0000.0001) %MON dynstat_wvel_sd              =   2.0069207429557E-05
(PID.TID 0000.0001) %MON dynstat_wvel_del2            =   7.6420309619288E-06
(PID.TID 0000.0001) %MON dynstat_theta_max            =   2.9855224617422E+01
(PID.TID 0000.0001) %MON dynstat_theta_min            =  -1.9260216271406E+00
(PID.TID 0000.0001) %MON dynstat_theta_mean           =   3.5885849510430E+00
(PID.TID 0000.0001) %MON dynstat_theta_sd             =   4.3338228039176E+00
(PID.TID 0000.0001) %MON dynstat_theta_del2           =   1.2834988896183E-01
(PID.TID 0000.0001) %MON dynstat_salt_max             =   3.7385757247871E+01
(PID.TID 0000.0001) %MON dynstat_salt_min             =   2.9711404917088E+01
(PID.TID 0000.0001) %MON dynstat_salt_mean            =   3.4716009846016E+01
(PID.TID 0000.0001) %MON dynstat_salt_sd              =   2.9323324538150E-01
(PID.TID 0000.0001) %MON dynstat_salt_del2            =   2.2709531455594E-02
(PID.TID 0000.0001) %MON advcfl_uvel_max              =   3.0669276788906E-02
(PID.TID 0000.0001) %MON advcfl_vvel_max              =   1.5610940891826E-02
(PID.TID 0000.0001) %MON advcfl_wvel_max              =   6.2887170923808E-02
(PID.TID 0000.0001) %MON advcfl_W_hf_max              =   6.8551447948240E-02
(PID.TID 0000.0001) %MON pe_b_mean                    =   2.9000315467671E-04
(PID.TID 0000.0001) %MON ke_max                       =   1.6394425244448E-02
(PID.TID 0000.0001) %MON ke_mean                      =   2.0873981682525E-04
(PID.TID 0000.0001) %MON ke_vol                       =   1.3226782436723E+18
(PID.TID 0000.0001) %MON vort_r_min                   =  -8.1296523307875E-07
(PID.TID 0000.0001) %MON vort_r_max                   =   6.1315865636232E-07
(PID.TID 0000.0001) %MON vort_a_mean                  =  -2.5205768670598E-05
(PID.TID 0000.0001) %MON vort_a_sd                    =   7.3403418882956E-05
(PID.TID 0000.0001) %MON vort_p_mean                  =  -3.1758668646706E-05
(PID.TID 0000.0001) %MON vort_p_sd                    =   1.3126150888424E-04
(PID.TID 0000.0001) %MON surfExpan_theta_mean         =   4.2024572961923E-06
(PID.TID 0000.0001) %MON surfExpan_salt_mean          =  -9.1614365773781E-08
(PID.TID 0000.0001) // =======================================================
(PID.TID 0000.0001) // End MONITOR dynamic field statistics
(PID.TID 0000.0001) // =======================================================
time,SST,SSS,fu,fv,Q,E-P,i0,i1,a,b =   4.6224E+06 -4.3327E-01  3.4466E+01 -1.8051E-02 -1.2803E-02  2.3337E+02  0.0000E+00     2     3  2.8333E-01  7.1667E-01
time,fu0,fu1,fu =   4.6224E+06 -1.4435E-02 -2.7199E-02 -1.8051E-02  2.8333E-01  7.1667E-01
 cg2d: Sum(rhs),rhsMax =  -4.31293889491258E-13  6.85449550980012E+00
(PID.TID 0000.0001)                    cg2d_init_res =    3.32796292163880E-01
(PID.TID 0000.0001)                       cg2d_iters =    24
(PID.TID 0000.0001)                         cg2d_res =    6.62202451226829E-14
(PID.TID 0000.0001) // =======================================================
(PID.TID 0000.0001) // Begin MONITOR dynamic field statistics
(PID.TID 0000.0001) // =======================================================
(PID.TID 0000.0001) %MON time_tsnumber                =                   108
(PID.TID 0000.0001) %MON time_secondsf                =   4.6656000000000E+06
(PID.TID 0000.0001) %MON dynstat_eta_max              =   8.1582328991102E-01
(PID.TID 0000.0001) %MON dynstat_eta_min              =  -1.4239999876484E+00
(PID.TID 0000.0001) %MON dynstat_eta_mean             =  -1.2118984477608E-17
(PID.TID 0000.0001) %MON dynstat_eta_sd               =   4.7725380113977E-01
(PID.TID 0000.0001) %MON dynstat_eta_del2             =   1.9039875631094E-02
(PID.TID 0000.0001) %MON dynstat_uvel_max             =   1.9025604017200E-01
(PID.TID 0000.0001) %MON dynstat_uvel_min             =  -1.4641252145292E-01
(PID.TID 0000.0001) %MON dynstat_uvel_mean            =   8.9162421898792E-04
(PID.TID 0000.0001) %MON dynstat_uvel_sd              =   1.6031319657810E-02
(PID.TID 0000.0001) %MON dynstat_uvel_del2            =   4.6725548805001E-03
(PID.TID 0000.0001) %MON dynstat_vvel_max             =   1.6242039013849E-01
(PID.TID 0000.0001) %MON dynstat_vvel_min             =  -1.3866951923037E-01
(PID.TID 0000.0001) %MON dynstat_vvel_mean            =   1.3972569553951E-03
(PID.TID 0000.0001) %MON dynstat_vvel_sd              =   1.4323187005925E-02
(PID.TID 0000.0001) %MON dynstat_vvel_del2            =   4.1758390714337E-03
(PID.TID 0000.0001) %MON dynstat_wvel_max             =   3.4534486418031E-04
(PID.TID 0000.0001) %MON dynstat_wvel_min             =  -1.8567355903927E-04
(PID.TID 0000.0001) %MON dynstat_wvel_mean            =  -2.8679337202506E-22
(PID.TID 0000.0001) %MON dynstat_wvel_sd              =   1.9987437563081E-05
(PID.TID 0000.0001) %MON dynstat_wvel_del2            =   7.6071649649570E-06
(PID.TID 0000.0001) %MON dynstat_theta_max            =   2.9860039234564E+01
(PID.TID 0000.0001) %MON dynstat_theta_min            =  -1.9265663532967E+00
(PID.TID 0000.0001) %MON dynstat_theta_mean           =   3.5885847015380E+00
(PID.TID 0000.0001) %MON dynstat_theta_sd             =   4.3339169503685E+00
(PID.TID 0000.0001) %MON dynstat_theta_del2           =   1.2822639837346E-01
(PID.TID 0000.0001) %MON dynstat_salt_max             =   3.7385316103845E+01
(PID.TID 0000.0001) %MON dynstat_salt_min             =   2.9709897843728E+01
(PID.TID 0000.0001) %MON dynstat_salt_mean            =   3.4716011361650E+01
(PID.TID 0000.0001) %MON dynstat_salt_sd              =   2.9320167368920E-01
(PID.TID 0000.0001) %MON dynstat_salt_del2            =   2.2680085810685E-02
(PID.TID 0000.0001) %MON advcfl_uvel_max              =   3.1443198958480E-02
(PID.TID 0000.0001) %MON advcfl_vvel_max              =   1.5777838447015E-02
(PID.TID 0000.0001) %MON advcfl_wvel_max              =   6.0285963435396E-02
(PID.TID 0000.0001) %MON advcfl_W_hf_max              =   6.8515953794747E-02
(PID.TID 0000.0001) %MON pe_b_mean                    =   2.9146069241005E-04
(PID.TID 0000.0001) %MON ke_max                       =   1.7368062368921E-02
(PID.TID 0000.0001) %MON ke_mean                      =   2.1010059394672E-04
(PID.TID 0000.0001) %MON ke_vol                       =   1.3226782436723E+18
(PID.TID 0000.0001) %MON vort_r_min                   =  -8.1963587340921E-07
(PID.TID 0000.0001) %MON vort_r_max                   =   6.1076345046529E-07
(PID.TID 0000.0001) %MON vort_a_mean                  =  -2.5205768705527E-05
(PID.TID 0000.0001) %MON vort_a_sd                    =   7.3403417205951E-05
(PID.TID 0000.0001) %MON vort_p_mean                  =  -3.1758668690716E-05
(PID.TID 0000.0001) %MON vort_p_sd                    =   1.3126144191561E-04
(PID.TID 0000.0001) %MON surfExpan_theta_mean         =   3.8689934279525E-06
(PID.TID 0000.0001) %MON surfExpan_salt_mean          =  -1.2439904736154E-07
(PID.TID 0000.0001) // =======================================================
(PID.TID 0000.0001) // End MONITOR dynamic field statistics
(PID.TID 0000.0001) // =======================================================
(PID.TID 0000.0001)  MDS_WRITE_RL_VEC: irec =  00000019   00066240
(PID.TID 0000.0001)  MDS_WRITE_RL_VEC: irec =  00000019   00066240
(PID.TID 0000.0001)  MDS_WRITE_RL_VEC: irec =  00000019   00066240
(PID.TID 0000.0001)  MDS_WRITE_RL_VEC: irec =  00000019   00066240
(PID.TID 0000.0001)  MDS_WRITE_RL_VEC: irec =  00000019   00066240
(PID.TID 0000.0001)  MDS_WRITE_RL_VEC: irec =  00000019   00066240
(PID.TID 0000.0001)  MDS_WRITE_RL_VEC: irec =  00000019   00066240
(PID.TID 0000.0001)  MDS_WRITE_RL_VEC: irec =  00000019   00066240
(PID.TID 0000.0001)  MDS_WRITE_RL_VEC: irec =  00000019   00066240
(PID.TID 0000.0001)  MDS_WRITE_RL_VEC: irec =  00000019   00066240
(PID.TID 0000.0001)  MDS_WRITE_RL_VEC: irec =  00000019   00066240
(PID.TID 0000.0001)  MDS_WRITE_RL_VEC: irec =  00000019   00004416
(PID.TID 0000.0001)  MDS_WRITE_RL_VEC: irec =  00000019   00066240
(PID.TID 0000.0001)  MDS_WRITE_RL_VEC: irec =  00000019   00004416
(PID.TID 0000.0001)  MDS_WRITE_RL_VEC: irec =  00000019   00004416
(PID.TID 0000.0001)  MDS_WRITE_RL_VEC: irec =  00000019   00004416
(PID.TID 0000.0001)  MDS_WRITE_RL_VEC: irec =  00000019   00004416
(PID.TID 0000.0001)  MDS_WRITE_RL_VEC: irec =  00000019   00004416
(PID.TID 0000.0001)  MDS_WRITE_RL_VEC: irec =  00000019   00004416
(PID.TID 0000.0001)  MDS_WRITE_RL_VEC: irec =  00000019   00004416
(PID.TID 0000.0001)  MDS_WRITE_RL_VEC: irec =  00000019   00004416
(PID.TID 0000.0001)  MDS_WRITE_RL_VEC: irec =  00000019   00004416
(PID.TID 0000.0001)  MDS_WRITE_RL_VEC: irec =  00000019   00004416
(PID.TID 0000.0001)  MDS_WRITE_RL_VEC: irec =  00000019   00004416
(PID.TID 0000.0001)  MDS_WRITE_RL_VEC: irec =  00000019   00004416
(PID.TID 0000.0001)  MDS_WRITE_RL_VEC: irec =  00000019   00004416
(PID.TID 0000.0001)  MDS_WRITE_RL_VEC: irec =  00000019   00004416
(PID.TID 0000.0001)  MDS_WRITE_RL_VEC: irec =  00000019   00004416
(PID.TID 0000.0001)  MDS_WRITE_RL_VEC: irec =  00000019   00004416
(PID.TID 0000.0001)  MDS_WRITE_RL_VEC: irec =  00000019   00004416
(PID.TID 0000.0001)  MDS_WRITE_RL_VEC: irec =  00000019   00004416
time,SST,SSS,fu,fv,Q,E-P,i0,i1,a,b =   4.6656E+06 -4.2747E-01  3.4469E+01 -1.8264E-02 -1.2518E-02  2.3296E+02  0.0000E+00     2     3  3.0000E-01  7.0000E-01
time,fu0,fu1,fu =   4.6656E+06 -1.4435E-02 -2.7199E-02 -1.8264E-02  3.0000E-01  7.0000E-01
 cg2d: Sum(rhs),rhsMax =  -4.41036096532343E-13  6.77682342917120E+00
(PID.TID 0000.0001)                    cg2d_init_res =    3.41050355489721E-01
(PID.TID 0000.0001)                       cg2d_iters =    24
(PID.TID 0000.0001)                         cg2d_res =    6.64894634778392E-14
(PID.TID 0000.0001) // =======================================================
(PID.TID 0000.0001) // Begin MONITOR dynamic field statistics
(PID.TID 0000.0001) // =======================================================
(PID.TID 0000.0001) %MON time_tsnumber                =                   109
(PID.TID 0000.0001) %MON time_secondsf                =   4.7088000000000E+06
(PID.TID 0000.0001) %MON dynstat_eta_max              =   7.9988096634390E-01
(PID.TID 0000.0001) %MON dynstat_eta_min              =  -1.4332706727895E+00
(PID.TID 0000.0001) %MON dynstat_eta_mean             =   5.0421743651097E-17
(PID.TID 0000.0001) %MON dynstat_eta_sd               =   4.7845748615682E-01
(PID.TID 0000.0001) %MON dynstat_eta_del2             =   1.8987208171474E-02
(PID.TID 0000.0001) %MON dynstat_uvel_max             =   1.9427993043101E-01
(PID.TID 0000.0001) %MON dynstat_uvel_min             =  -1.4519852860501E-01
(PID.TID 0000.0001) %MON dynstat_uvel_mean            =   8.9431657947553E-04
(PID.TID 0000.0001) %MON dynstat_uvel_sd              =   1.6132054093517E-02
(PID.TID 0000.0001) %MON dynstat_uvel_del2            =   4.6640659957937E-03
(PID.TID 0000.0001) %MON dynstat_vvel_max             =   1.6400259625006E-01
(PID.TID 0000.0001) %MON dynstat_vvel_min             =  -1.3733286958743E-01
(PID.TID 0000.0001) %MON dynstat_vvel_mean            =   1.4607411861408E-03
(PID.TID 0000.0001) %MON dynstat_vvel_sd              =   1.4309231655668E-02
(PID.TID 0000.0001) %MON dynstat_vvel_del2            =   4.1711656254801E-03
(PID.TID 0000.0001) %MON dynstat_wvel_max             =   3.4037876512529E-04
(PID.TID 0000.0001) %MON dynstat_wvel_min             =  -1.8396297138046E-04
(PID.TID 0000.0001) %MON dynstat_wvel_mean            =  -7.3322499459838E-23
(PID.TID 0000.0001) %MON dynstat_wvel_sd              =   1.9907558635596E-05
(PID.TID 0000.0001) %MON dynstat_wvel_del2            =   7.5712305307868E-06
(PID.TID 0000.0001) %MON dynstat_theta_max            =   2.9864780179296E+01
(PID.TID 0000.0001) %MON dynstat_theta_min            =  -1.9266570868413E+00
(PID.TID 0000.0001) %MON dynstat_theta_mean           =   3.5885875863372E+00
(PID.TID 0000.0001) %MON dynstat_theta_sd             =   4.3340219722669E+00
(PID.TID 0000.0001) %MON dynstat_theta_del2           =   1.2812243660737E-01
(PID.TID 0000.0001) %MON dynstat_salt_max             =   3.7384869689104E+01
(PID.TID 0000.0001) %MON dynstat_salt_min             =   2.9708427512986E+01
(PID.TID 0000.0001) %MON dynstat_salt_mean            =   3.4716013333586E+01
(PID.TID 0000.0001) %MON dynstat_salt_sd              =   2.9316971103133E-01
(PID.TID 0000.0001) %MON dynstat_salt_del2            =   2.2647456033064E-02
(PID.TID 0000.0001) %MON advcfl_uvel_max              =   3.2108218486305E-02
(PID.TID 0000.0001) %MON advcfl_vvel_max              =   1.5931537082986E-02
(PID.TID 0000.0001) %MON advcfl_wvel_max              =   5.7358129492117E-02
(PID.TID 0000.0001) %MON advcfl_W_hf_max              =   6.8899385144863E-02
(PID.TID 0000.0001) %MON pe_b_mean                    =   2.9293273633752E-04
(PID.TID 0000.0001) %MON ke_max                       =   1.8264078364353E-02
(PID.TID 0000.0001) %MON ke_mean                      =   2.1147680947073E-04
(PID.TID 0000.0001) %MON ke_vol                       =   1.3226782436723E+18
(PID.TID 0000.0001) %MON vort_r_min                   =  -8.2515204985263E-07
(PID.TID 0000.0001) %MON vort_r_max                   =   6.1861980150192E-07
(PID.TID 0000.0001) %MON vort_a_mean                  =  -2.5205768740321E-05
(PID.TID 0000.0001) %MON vort_a_sd                    =   7.3403416020990E-05
(PID.TID 0000.0001) %MON vort_p_mean                  =  -3.1758668734557E-05
(PID.TID 0000.0001) %MON vort_p_sd                    =   1.3126137783604E-04
(PID.TID 0000.0001) %MON surfExpan_theta_mean         =   3.5409041463830E-06
(PID.TID 0000.0001) %MON surfExpan_salt_mean          =  -1.6185683305533E-07
(PID.TID 0000.0001) // =======================================================
(PID.TID 0000.0001) // End MONITOR dynamic field statistics
(PID.TID 0000.0001) // =======================================================
time,SST,SSS,fu,fv,Q,E-P,i0,i1,a,b =   4.7088E+06 -4.2167E-01  3.4471E+01 -1.8477E-02 -1.2234E-02  2.3254E+02  0.0000E+00     2     3  3.1667E-01  6.8333E-01
time,fu0,fu1,fu =   4.7088E+06 -1.4435E-02 -2.7199E-02 -1.8477E-02  3.1667E-01  6.8333E-01
 cg2d: Sum(rhs),rhsMax =  -2.47926679186605E-13  6.84684496369599E+00
(PID.TID 0000.0001)                    cg2d_init_res =    3.40802699455436E-01
(PID.TID 0000.0001)                       cg2d_iters =    24
(PID.TID 0000.0001)                         cg2d_res =    6.42778876482675E-14
(PID.TID 0000.0001) // =======================================================
(PID.TID 0000.0001) // Begin MONITOR dynamic field statistics
(PID.TID 0000.0001) // =======================================================
(PID.TID 0000.0001) %MON time_tsnumber                =                   110
(PID.TID 0000.0001) %MON time_secondsf                =   4.7520000000000E+06
(PID.TID 0000.0001) %MON dynstat_eta_max              =   7.8252616508684E-01
(PID.TID 0000.0001) %MON dynstat_eta_min              =  -1.4412549412696E+00
(PID.TID 0000.0001) %MON dynstat_eta_mean             =   2.5517335452390E-16
(PID.TID 0000.0001) %MON dynstat_eta_sd               =   4.7966918460859E-01
(PID.TID 0000.0001) %MON dynstat_eta_del2             =   1.8946828026560E-02
(PID.TID 0000.0001) %MON dynstat_uvel_max             =   1.9758504195630E-01
(PID.TID 0000.0001) %MON dynstat_uvel_min             =  -1.4392204458432E-01
(PID.TID 0000.0001) %MON dynstat_uvel_mean            =   8.9838591251541E-04
(PID.TID 0000.0001) %MON dynstat_uvel_sd              =   1.6225802587245E-02
(PID.TID 0000.0001) %MON dynstat_uvel_del2            =   4.6554658935377E-03
(PID.TID 0000.0001) %MON dynstat_vvel_max             =   1.6544439782621E-01
(PID.TID 0000.0001) %MON dynstat_vvel_min             =  -1.3847259144801E-01
(PID.TID 0000.0001) %MON dynstat_vvel_mean            =   1.5162936709230E-03
(PID.TID 0000.0001) %MON dynstat_vvel_sd              =   1.4300775527519E-02
(PID.TID 0000.0001) %MON dynstat_vvel_del2            =   4.1657969389734E-03
(PID.TID 0000.0001) %MON dynstat_wvel_max             =   3.3527968697488E-04
(PID.TID 0000.0001) %MON dynstat_wvel_min             =  -1.8218024224410E-04
(PID.TID 0000.0001) %MON dynstat_wvel_mean            =   4.9994268528298E-22
(PID.TID 0000.0001) %MON dynstat_wvel_sd              =   1.9827603697759E-05
(PID.TID 0000.0001) %MON dynstat_wvel_del2            =   7.5351417252784E-06
(PID.TID 0000.0001) %MON dynstat_theta_max            =   2.9869356256489E+01
(PID.TID 0000.0001) %MON dynstat_theta_min            =  -1.9268479923680E+00
(PID.TID 0000.0001) %MON dynstat_theta_mean           =   3.5885935125801E+00
(PID.TID 0000.0001) %MON dynstat_theta_sd             =   4.3341369144434E+00
(PID.TID 0000.0001) %MON dynstat_theta_del2           =   1.2801032016528E-01
(PID.TID 0000.0001) %MON dynstat_salt_max             =   3.7384418234126E+01
(PID.TID 0000.0001) %MON dynstat_salt_min             =   2.9706994768172E+01
(PID.TID 0000.0001) %MON dynstat_salt_mean            =   3.4716015798393E+01
(PID.TID 0000.0001) %MON dynstat_salt_sd              =   2.9313752486797E-01
(PID.TID 0000.0001) %MON dynstat_salt_del2            =   2.2615760333863E-02
(PID.TID 0000.0001) %MON advcfl_uvel_max              =   3.2654447027464E-02
(PID.TID 0000.0001) %MON advcfl_vvel_max              =   1.6071596544250E-02
(PID.TID 0000.0001) %MON advcfl_wvel_max              =   5.4164174739801E-02
(PID.TID 0000.0001) %MON advcfl_W_hf_max              =   6.8778599642274E-02
(PID.TID 0000.0001) %MON pe_b_mean                    =   2.9441832536365E-04
(PID.TID 0000.0001) %MON ke_max                       =   1.9066919214957E-02
(PID.TID 0000.0001) %MON ke_mean                      =   2.1282392299982E-04
(PID.TID 0000.0001) %MON ke_vol                       =   1.3226782436723E+18
(PID.TID 0000.0001) %MON vort_r_min                   =  -8.2953610897442E-07
(PID.TID 0000.0001) %MON vort_r_max                   =   6.2469675986251E-07
(PID.TID 0000.0001) %MON vort_a_mean                  =  -2.5205768774873E-05
(PID.TID 0000.0001) %MON vort_a_sd                    =   7.3403415272098E-05
(PID.TID 0000.0001) %MON vort_p_mean                  =  -3.1758668778091E-05
(PID.TID 0000.0001) %MON vort_p_sd                    =   1.3126131694697E-04
(PID.TID 0000.0001) %MON surfExpan_theta_mean         =   3.2214034305843E-06
(PID.TID 0000.0001) %MON surfExpan_salt_mean          =  -2.0312372168165E-07
(PID.TID 0000.0001) // =======================================================
(PID.TID 0000.0001) // End MONITOR dynamic field statistics
(PID.TID 0000.0001) // =======================================================
time,SST,SSS,fu,fv,Q,E-P,i0,i1,a,b =   4.7520E+06 -4.1587E-01  3.4474E+01 -1.8689E-02 -1.1950E-02  2.3212E+02  0.0000E+00     2     3  3.3333E-01  6.6667E-01
time,fu0,fu1,fu =   4.7520E+06 -1.4435E-02 -2.7199E-02 -1.8689E-02  3.3333E-01  6.6667E-01
 cg2d: Sum(rhs),rhsMax =   2.68590705232441E-13  6.91737136411204E+00
(PID.TID 0000.0001)                    cg2d_init_res =    3.38750094032464E-01
(PID.TID 0000.0001)                       cg2d_iters =    24
(PID.TID 0000.0001)                         cg2d_res =    6.11523404237501E-14
(PID.TID 0000.0001) // =======================================================
(PID.TID 0000.0001) // Begin MONITOR dynamic field statistics
(PID.TID 0000.0001) // =======================================================
(PID.TID 0000.0001) %MON time_tsnumber                =                   111
(PID.TID 0000.0001) %MON time_secondsf                =   4.7952000000000E+06
(PID.TID 0000.0001) %MON dynstat_eta_max              =   7.8611055518994E-01
(PID.TID 0000.0001) %MON dynstat_eta_min              =  -1.4480886296047E+00
(PID.TID 0000.0001) %MON dynstat_eta_mean             =  -2.7381033048144E-16
(PID.TID 0000.0001) %MON dynstat_eta_sd               =   4.8088688848237E-01
(PID.TID 0000.0001) %MON dynstat_eta_del2             =   1.8916157159188E-02
(PID.TID 0000.0001) %MON dynstat_uvel_max             =   2.0012571481933E-01
(PID.TID 0000.0001) %MON dynstat_uvel_min             =  -1.4258359945236E-01
(PID.TID 0000.0001) %MON dynstat_uvel_mean            =   9.0364648707394E-04
(PID.TID 0000.0001) %MON dynstat_uvel_sd              =   1.6311129320642E-02
(PID.TID 0000.0001) %MON dynstat_uvel_del2            =   4.6457048365655E-03
(PID.TID 0000.0001) %MON dynstat_vvel_max             =   1.6674204792192E-01
(PID.TID 0000.0001) %MON dynstat_vvel_min             =  -1.3988710341790E-01
(PID.TID 0000.0001) %MON dynstat_vvel_mean            =   1.5637180807952E-03
(PID.TID 0000.0001) %MON dynstat_vvel_sd              =   1.4296619277388E-02
(PID.TID 0000.0001) %MON dynstat_vvel_del2            =   4.1604894036836E-03
(PID.TID 0000.0001) %MON dynstat_wvel_max             =   3.3008016172572E-04
(PID.TID 0000.0001) %MON dynstat_wvel_min             =  -1.8033435584540E-04
(PID.TID 0000.0001) %MON dynstat_wvel_mean            =  -5.6911535444920E-22
(PID.TID 0000.0001) %MON dynstat_wvel_sd              =   1.9745818348037E-05
(PID.TID 0000.0001) %MON dynstat_wvel_del2            =   7.4990303748343E-06
(PID.TID 0000.0001) %MON dynstat_theta_max            =   2.9873675807441E+01
(PID.TID 0000.0001) %MON dynstat_theta_min            =  -1.9269929400878E+00
(PID.TID 0000.0001) %MON dynstat_theta_mean           =   3.5886023054819E+00
(PID.TID 0000.0001) %MON dynstat_theta_sd             =   4.3342606885438E+00
(PID.TID 0000.0001) %MON dynstat_theta_del2           =   1.2789397880716E-01
(PID.TID 0000.0001) %MON dynstat_salt_max             =   3.7383962222714E+01
(PID.TID 0000.0001) %MON dynstat_salt_min             =   2.9705600302748E+01
(PID.TID 0000.0001) %MON dynstat_salt_mean            =   3.4716018778968E+01
(PID.TID 0000.0001) %MON dynstat_salt_sd              =   2.9310508793391E-01
(PID.TID 0000.0001) %MON dynstat_salt_del2            =   2.2584159983739E-02
(PID.TID 0000.0001) %MON advcfl_uvel_max              =   3.3074338465594E-02
(PID.TID 0000.0001) %MON advcfl_vvel_max              =   1.6197652845146E-02
(PID.TID 0000.0001) %MON advcfl_wvel_max              =   5.0762409150359E-02
(PID.TID 0000.0001) %MON advcfl_W_hf_max              =   6.8159792356085E-02
(PID.TID 0000.0001) %MON pe_b_mean                    =   2.9591506276073E-04
(PID.TID 0000.0001) %MON ke_max                       =   1.9762897697414E-02
(PID.TID 0000.0001) %MON ke_mean                      =   2.1410174698237E-04
(PID.TID 0000.0001) %MON ke_vol                       =   1.3226782436723E+18
(PID.TID 0000.0001) %MON vort_r_min                   =  -8.3282301167499E-07
(PID.TID 0000.0001) %MON vort_r_max                   =   6.2894040069508E-07
(PID.TID 0000.0001) %MON vort_a_mean                  =  -2.5205768809053E-05
(PID.TID 0000.0001) %MON vort_a_sd                    =   7.3403414891580E-05
(PID.TID 0000.0001) %MON vort_p_mean                  =  -3.1758668821156E-05
(PID.TID 0000.0001) %MON vort_p_sd                    =   1.3126125948042E-04
(PID.TID 0000.0001) %MON surfExpan_theta_mean         =   2.9151098396903E-06
(PID.TID 0000.0001) %MON surfExpan_salt_mean          =  -2.4716209207242E-07
(PID.TID 0000.0001) // =======================================================
(PID.TID 0000.0001) // End MONITOR dynamic field statistics
(PID.TID 0000.0001) // =======================================================
time,SST,SSS,fu,fv,Q,E-P,i0,i1,a,b =   4.7952E+06 -4.1007E-01  3.4476E+01 -1.8902E-02 -1.1665E-02  2.3170E+02  0.0000E+00     2     3  3.5000E-01  6.5000E-01
time,fu0,fu1,fu =   4.7952E+06 -1.4435E-02 -2.7199E-02 -1.8902E-02  3.5000E-01  6.5000E-01
 cg2d: Sum(rhs),rhsMax =   7.82832132451006E-13  6.98488815477551E+00
(PID.TID 0000.0001)                    cg2d_init_res =    3.34730009073257E-01
(PID.TID 0000.0001)                       cg2d_iters =    24
(PID.TID 0000.0001)                         cg2d_res =    5.75069506957782E-14
(PID.TID 0000.0001) // =======================================================
(PID.TID 0000.0001) // Begin MONITOR dynamic field statistics
(PID.TID 0000.0001) // =======================================================
(PID.TID 0000.0001) %MON time_tsnumber                =                   112
(PID.TID 0000.0001) %MON time_secondsf                =   4.8384000000000E+06
(PID.TID 0000.0001) %MON dynstat_eta_max              =   7.9417108069117E-01
(PID.TID 0000.0001) %MON dynstat_eta_min              =  -1.4539277258137E+00
(PID.TID 0000.0001) %MON dynstat_eta_mean             =   2.1012304418819E-17
(PID.TID 0000.0001) %MON dynstat_eta_sd               =   4.8210721309790E-01
(PID.TID 0000.0001) %MON dynstat_eta_del2             =   1.8891890035754E-02
(PID.TID 0000.0001) %MON dynstat_uvel_max             =   2.0187102124029E-01
(PID.TID 0000.0001) %MON dynstat_uvel_min             =  -1.4130237746419E-01
(PID.TID 0000.0001) %MON dynstat_uvel_mean            =   9.0987066803892E-04
(PID.TID 0000.0001) %MON dynstat_uvel_sd              =   1.6387213251457E-02
(PID.TID 0000.0001) %MON dynstat_uvel_del2            =   4.6347349023447E-03
(PID.TID 0000.0001) %MON dynstat_vvel_max             =   1.6789263330565E-01
(PID.TID 0000.0001) %MON dynstat_vvel_min             =  -1.4110975509566E-01
(PID.TID 0000.0001) %MON dynstat_vvel_mean            =   1.6029744159468E-03
(PID.TID 0000.0001) %MON dynstat_vvel_sd              =   1.4295278527765E-02
(PID.TID 0000.0001) %MON dynstat_vvel_del2            =   4.1558254137825E-03
(PID.TID 0000.0001) %MON dynstat_wvel_max             =   3.2481215093044E-04
(PID.TID 0000.0001) %MON dynstat_wvel_min             =  -1.7843363508198E-04
(PID.TID 0000.0001) %MON dynstat_wvel_mean            =   1.2155873628667E-22
(PID.TID 0000.0001) %MON dynstat_wvel_sd              =   1.9660754203230E-05
(PID.TID 0000.0001) %MON dynstat_wvel_del2            =   7.4599607901700E-06
(PID.TID 0000.0001) %MON dynstat_theta_max            =   2.9877649796368E+01
(PID.TID 0000.0001) %MON dynstat_theta_min            =  -1.9270847285085E+00
(PID.TID 0000.0001) %MON dynstat_theta_mean           =   3.5886137384956E+00
(PID.TID 0000.0001) %MON dynstat_theta_sd             =   4.3343920806731E+00
(PID.TID 0000.0001) %MON dynstat_theta_del2           =   1.2776515700228E-01
(PID.TID 0000.0001) %MON dynstat_salt_max             =   3.7383502536780E+01
(PID.TID 0000.0001) %MON dynstat_salt_min             =   2.9704244680200E+01
(PID.TID 0000.0001) %MON dynstat_salt_mean            =   3.4716022285904E+01
(PID.TID 0000.0001) %MON dynstat_salt_sd              =   2.9307244748293E-01
(PID.TID 0000.0001) %MON dynstat_salt_del2            =   2.2554123815920E-02
(PID.TID 0000.0001) %MON advcfl_uvel_max              =   3.3362781434280E-02
(PID.TID 0000.0001) %MON advcfl_vvel_max              =   1.6309422988589E-02
(PID.TID 0000.0001) %MON advcfl_wvel_max              =   5.5650256751530E-02
(PID.TID 0000.0001) %MON advcfl_W_hf_max              =   6.7058880529097E-02
(PID.TID 0000.0001) %MON pe_b_mean                    =   2.9741882854469E-04
(PID.TID 0000.0001) %MON ke_max                       =   2.0340532705645E-02
(PID.TID 0000.0001) %MON ke_mean                      =   2.1527572806300E-04
(PID.TID 0000.0001) %MON ke_vol                       =   1.3226782436723E+18
(PID.TID 0000.0001) %MON vort_r_min                   =  -8.3505877080292E-07
(PID.TID 0000.0001) %MON vort_r_max                   =   6.3131796182751E-07
(PID.TID 0000.0001) %MON vort_a_mean                  =  -2.5205768842754E-05
(PID.TID 0000.0001) %MON vort_a_sd                    =   7.3403414801449E-05
(PID.TID 0000.0001) %MON vort_p_mean                  =  -3.1758668863619E-05
(PID.TID 0000.0001) %MON vort_p_sd                    =   1.3126120561113E-04
(PID.TID 0000.0001) %MON surfExpan_theta_mean         =   2.6273133794831E-06
(PID.TID 0000.0001) %MON surfExpan_salt_mean          =  -2.9286742347594E-07
(PID.TID 0000.0001) // =======================================================
(PID.TID 0000.0001) // End MONITOR dynamic field statistics
(PID.TID 0000.0001) // =======================================================
time,SST,SSS,fu,fv,Q,E-P,i0,i1,a,b =   4.8384E+06 -4.0427E-01  3.4479E+01 -1.9115E-02 -1.1381E-02  2.3128E+02  0.0000E+00     2     3  3.6667E-01  6.3333E-01
time,fu0,fu1,fu =   4.8384E+06 -1.4435E-02 -2.7199E-02 -1.9115E-02  3.6667E-01  6.3333E-01
 cg2d: Sum(rhs),rhsMax =  -8.14556755379670E-13  7.04590475328957E+00
(PID.TID 0000.0001)                    cg2d_init_res =    3.28825655749691E-01
(PID.TID 0000.0001)                       cg2d_iters =    24
(PID.TID 0000.0001)                         cg2d_res =    5.39216774597362E-14
(PID.TID 0000.0001) // =======================================================
(PID.TID 0000.0001) // Begin MONITOR dynamic field statistics
(PID.TID 0000.0001) // =======================================================
(PID.TID 0000.0001) %MON time_tsnumber                =                   113
(PID.TID 0000.0001) %MON time_secondsf                =   4.8816000000000E+06
(PID.TID 0000.0001) %MON dynstat_eta_max              =   8.0147594119379E-01
(PID.TID 0000.0001) %MON dynstat_eta_min              =  -1.4589394185857E+00
(PID.TID 0000.0001) %MON dynstat_eta_mean             =   1.8402654625389E-16
(PID.TID 0000.0001) %MON dynstat_eta_sd               =   4.8332543920821E-01
(PID.TID 0000.0001) %MON dynstat_eta_del2             =   1.8875816256091E-02
(PID.TID 0000.0001) %MON dynstat_uvel_max             =   2.0280503520768E-01
(PID.TID 0000.0001) %MON dynstat_uvel_min             =  -1.4034998208529E-01
(PID.TID 0000.0001) %MON dynstat_uvel_mean            =   9.1679266251536E-04
(PID.TID 0000.0001) %MON dynstat_uvel_sd              =   1.6453804240351E-02
(PID.TID 0000.0001) %MON dynstat_uvel_del2            =   4.6224540111301E-03
(PID.TID 0000.0001) %MON dynstat_vvel_max             =   1.6889408650091E-01
(PID.TID 0000.0001) %MON dynstat_vvel_min             =  -1.4214174563867E-01
(PID.TID 0000.0001) %MON dynstat_vvel_mean            =   1.6341725167524E-03
(PID.TID 0000.0001) %MON dynstat_vvel_sd              =   1.4295076386416E-02
(PID.TID 0000.0001) %MON dynstat_vvel_del2            =   4.1506748908821E-03
(PID.TID 0000.0001) %MON dynstat_wvel_max             =   3.1950739932824E-04
(PID.TID 0000.0001) %MON dynstat_wvel_min             =  -1.7717650788511E-04
(PID.TID 0000.0001) %MON dynstat_wvel_mean            =   7.6900642630125E-23
(PID.TID 0000.0001) %MON dynstat_wvel_sd              =   1.9571377285744E-05
(PID.TID 0000.0001) %MON dynstat_wvel_del2            =   7.4214000767342E-06
(PID.TID 0000.0001) %MON dynstat_theta_max            =   2.9881193963256E+01
(PID.TID 0000.0001) %MON dynstat_theta_min            =  -1.9271187610490E+00
(PID.TID 0000.0001) %MON dynstat_theta_mean           =   3.5886275070852E+00
(PID.TID 0000.0001) %MON dynstat_theta_sd             =   4.3345295309145E+00
(PID.TID 0000.0001) %MON dynstat_theta_del2           =   1.2763230104475E-01
(PID.TID 0000.0001) %MON dynstat_salt_max             =   3.7383040170990E+01
(PID.TID 0000.0001) %MON dynstat_salt_min             =   2.9702928292549E+01
(PID.TID 0000.0001) %MON dynstat_salt_mean            =   3.4716026315865E+01
(PID.TID 0000.0001) %MON dynstat_salt_sd              =   2.9303971291578E-01
(PID.TID 0000.0001) %MON dynstat_salt_del2            =   2.2523918687959E-02
(PID.TID 0000.0001) %MON advcfl_uvel_max              =   3.3517143876492E-02
(PID.TID 0000.0001) %MON advcfl_vvel_max              =   1.6406706135820E-02
(PID.TID 0000.0001) %MON advcfl_wvel_max              =   6.0681806667401E-02
(PID.TID 0000.0001) %MON advcfl_W_hf_max              =   6.8138520681665E-02
(PID.TID 0000.0001) %MON pe_b_mean                    =   2.9892380978649E-04
(PID.TID 0000.0001) %MON ke_max                       =   2.0790833871318E-02
(PID.TID 0000.0001) %MON ke_mean                      =   2.1631776697999E-04
(PID.TID 0000.0001) %MON ke_vol                       =   1.3226782436723E+18
(PID.TID 0000.0001) %MON vort_r_min                   =  -8.3629886059560E-07
(PID.TID 0000.0001) %MON vort_r_max                   =   6.3181974743448E-07
(PID.TID 0000.0001) %MON vort_a_mean                  =  -2.5205768875859E-05
(PID.TID 0000.0001) %MON vort_a_sd                    =   7.3403414915793E-05
(PID.TID 0000.0001) %MON vort_p_mean                  =  -3.1758668905331E-05
(PID.TID 0000.0001) %MON vort_p_sd                    =   1.3126115543743E-04
(PID.TID 0000.0001) %MON surfExpan_theta_mean         =   2.3637323386739E-06
(PID.TID 0000.0001) %MON surfExpan_salt_mean          =  -3.3909394571309E-07
(PID.TID 0000.0001) // =======================================================
(PID.TID 0000.0001) // End MONITOR dynamic field statistics
(PID.TID 0000.0001) // =======================================================
time,SST,SSS,fu,fv,Q,E-P,i0,i1,a,b =   4.8816E+06 -3.9848E-01  3.4482E+01 -1.9328E-02 -1.1097E-02  2.3087E+02  0.0000E+00     2     3  3.8333E-01  6.1667E-01
time,fu0,fu1,fu =   4.8816E+06 -1.4435E-02 -2.7199E-02 -1.9328E-02  3.8333E-01  6.1667E-01
 cg2d: Sum(rhs),rhsMax =  -4.65030791652055E-13  7.09712839965982E+00
(PID.TID 0000.0001)                    cg2d_init_res =    3.21323067820191E-01
(PID.TID 0000.0001)                       cg2d_iters =    24
(PID.TID 0000.0001)                         cg2d_res =    5.09999959734717E-14
(PID.TID 0000.0001) // =======================================================
(PID.TID 0000.0001) // Begin MONITOR dynamic field statistics
(PID.TID 0000.0001) // =======================================================
(PID.TID 0000.0001) %MON time_tsnumber                =                   114
(PID.TID 0000.0001) %MON time_secondsf                =   4.9248000000000E+06
(PID.TID 0000.0001) %MON dynstat_eta_max              =   8.0765447288202E-01
(PID.TID 0000.0001) %MON dynstat_eta_min              =  -1.4632938280653E+00
(PID.TID 0000.0001) %MON dynstat_eta_mean             =  -5.7845111912541E-17
(PID.TID 0000.0001) %MON dynstat_eta_sd               =   4.8453578940526E-01
(PID.TID 0000.0001) %MON dynstat_eta_del2             =   1.8853567606571E-02
(PID.TID 0000.0001) %MON dynstat_uvel_max             =   2.0292685389593E-01
(PID.TID 0000.0001) %MON dynstat_uvel_min             =  -1.3927723697540E-01
(PID.TID 0000.0001) %MON dynstat_uvel_mean            =   9.2411300254072E-04
(PID.TID 0000.0001) %MON dynstat_uvel_sd              =   1.6511140610850E-02
(PID.TID 0000.0001) %MON dynstat_uvel_del2            =   4.6081242882379E-03
(PID.TID 0000.0001) %MON dynstat_vvel_max             =   1.6974516789485E-01
(PID.TID 0000.0001) %MON dynstat_vvel_min             =  -1.4298633822551E-01
(PID.TID 0000.0001) %MON dynstat_vvel_mean            =   1.6575621530057E-03
(PID.TID 0000.0001) %MON dynstat_vvel_sd              =   1.4294249380690E-02
(PID.TID 0000.0001) %MON dynstat_vvel_del2            =   4.1445247223713E-03
(PID.TID 0000.0001) %MON dynstat_wvel_max             =   3.1419723788814E-04
(PID.TID 0000.0001) %MON dynstat_wvel_min             =  -1.7744016073806E-04
(PID.TID 0000.0001) %MON dynstat_wvel_mean            =   4.1446758697780E-22
(PID.TID 0000.0001) %MON dynstat_wvel_sd              =   1.9477112228096E-05
(PID.TID 0000.0001) %MON dynstat_wvel_del2            =   7.3809981527526E-06
(PID.TID 0000.0001) %MON dynstat_theta_max            =   2.9884283850842E+01
(PID.TID 0000.0001) %MON dynstat_theta_min            =  -1.9290501138413E+00
(PID.TID 0000.0001) %MON dynstat_theta_mean           =   3.5886432489211E+00
(PID.TID 0000.0001) %MON dynstat_theta_sd             =   4.3346714419210E+00
(PID.TID 0000.0001) %MON dynstat_theta_del2           =   1.2749368644441E-01
(PID.TID 0000.0001) %MON dynstat_salt_max             =   3.7382576471346E+01
(PID.TID 0000.0001) %MON dynstat_salt_min             =   2.9701651335475E+01
(PID.TID 0000.0001) %MON dynstat_salt_mean            =   3.4716030852718E+01
(PID.TID 0000.0001) %MON dynstat_salt_sd              =   2.9300696503514E-01
(PID.TID 0000.0001) %MON dynstat_salt_del2            =   2.2493644907620E-02
(PID.TID 0000.0001) %MON advcfl_uvel_max              =   3.3537276584226E-02
(PID.TID 0000.0001) %MON advcfl_vvel_max              =   1.6489381868389E-02
(PID.TID 0000.0001) %MON advcfl_wvel_max              =   6.4270275576398E-02
(PID.TID 0000.0001) %MON advcfl_W_hf_max              =   7.2174799874093E-02
(PID.TID 0000.0001) %MON pe_b_mean                    =   3.0042282257611E-04
(PID.TID 0000.0001) %MON ke_max                       =   2.1107519287460E-02
(PID.TID 0000.0001) %MON ke_mean                      =   2.1720653665296E-04
(PID.TID 0000.0001) %MON ke_vol                       =   1.3226782436723E+18
(PID.TID 0000.0001) %MON vort_r_min                   =  -8.3660662434856E-07
(PID.TID 0000.0001) %MON vort_r_max                   =   6.3046069732887E-07
(PID.TID 0000.0001) %MON vort_a_mean                  =  -2.5205768908115E-05
(PID.TID 0000.0001) %MON vort_a_sd                    =   7.3403415144046E-05
(PID.TID 0000.0001) %MON vort_p_mean                  =  -3.1758668945973E-05
(PID.TID 0000.0001) %MON vort_p_sd                    =   1.3126110896836E-04
(PID.TID 0000.0001) %MON surfExpan_theta_mean         =   2.1307601479388E-06
(PID.TID 0000.0001) %MON surfExpan_salt_mean          =  -3.8464000084080E-07
(PID.TID 0000.0001) // =======================================================
(PID.TID 0000.0001) // End MONITOR dynamic field statistics
(PID.TID 0000.0001) // =======================================================
(PID.TID 0000.0001)  MDS_WRITE_RL_VEC: irec =  00000020   00066240
(PID.TID 0000.0001)  MDS_WRITE_RL_VEC: irec =  00000020   00066240
(PID.TID 0000.0001)  MDS_WRITE_RL_VEC: irec =  00000020   00066240
(PID.TID 0000.0001)  MDS_WRITE_RL_VEC: irec =  00000020   00066240
(PID.TID 0000.0001)  MDS_WRITE_RL_VEC: irec =  00000020   00066240
(PID.TID 0000.0001)  MDS_WRITE_RL_VEC: irec =  00000020   00066240
(PID.TID 0000.0001)  MDS_WRITE_RL_VEC: irec =  00000020   00066240
(PID.TID 0000.0001)  MDS_WRITE_RL_VEC: irec =  00000020   00066240
(PID.TID 0000.0001)  MDS_WRITE_RL_VEC: irec =  00000020   00066240
(PID.TID 0000.0001)  MDS_WRITE_RL_VEC: irec =  00000020   00066240
(PID.TID 0000.0001)  MDS_WRITE_RL_VEC: irec =  00000020   00066240
(PID.TID 0000.0001)  MDS_WRITE_RL_VEC: irec =  00000020   00004416
(PID.TID 0000.0001)  MDS_WRITE_RL_VEC: irec =  00000020   00066240
(PID.TID 0000.0001)  MDS_WRITE_RL_VEC: irec =  00000020   00004416
(PID.TID 0000.0001)  MDS_WRITE_RL_VEC: irec =  00000020   00004416
(PID.TID 0000.0001)  MDS_WRITE_RL_VEC: irec =  00000020   00004416
(PID.TID 0000.0001)  MDS_WRITE_RL_VEC: irec =  00000020   00004416
(PID.TID 0000.0001)  MDS_WRITE_RL_VEC: irec =  00000020   00004416
(PID.TID 0000.0001)  MDS_WRITE_RL_VEC: irec =  00000020   00004416
(PID.TID 0000.0001)  MDS_WRITE_RL_VEC: irec =  00000020   00004416
(PID.TID 0000.0001)  MDS_WRITE_RL_VEC: irec =  00000020   00004416
(PID.TID 0000.0001)  MDS_WRITE_RL_VEC: irec =  00000020   00004416
(PID.TID 0000.0001)  MDS_WRITE_RL_VEC: irec =  00000020   00004416
(PID.TID 0000.0001)  MDS_WRITE_RL_VEC: irec =  00000020   00004416
(PID.TID 0000.0001)  MDS_WRITE_RL_VEC: irec =  00000020   00004416
(PID.TID 0000.0001)  MDS_WRITE_RL_VEC: irec =  00000020   00004416
(PID.TID 0000.0001)  MDS_WRITE_RL_VEC: irec =  00000020   00004416
(PID.TID 0000.0001)  MDS_WRITE_RL_VEC: irec =  00000020   00004416
(PID.TID 0000.0001)  MDS_WRITE_RL_VEC: irec =  00000020   00004416
(PID.TID 0000.0001)  MDS_WRITE_RL_VEC: irec =  00000020   00004416
(PID.TID 0000.0001)  MDS_WRITE_RL_VEC: irec =  00000020   00004416
time,SST,SSS,fu,fv,Q,E-P,i0,i1,a,b =   4.9248E+06 -3.9268E-01  3.4484E+01 -1.9540E-02 -1.0813E-02  2.3045E+02  0.0000E+00     2     3  4.0000E-01  6.0000E-01
time,fu0,fu1,fu =   4.9248E+06 -1.4435E-02 -2.7199E-02 -1.9540E-02  4.0000E-01  6.0000E-01
 cg2d: Sum(rhs),rhsMax =  -6.98399671428263E-13  7.13562348870896E+00
(PID.TID 0000.0001)                    cg2d_init_res =    3.12662116511137E-01
(PID.TID 0000.0001)                       cg2d_iters =    24
(PID.TID 0000.0001)                         cg2d_res =    4.92032747124496E-14
(PID.TID 0000.0001) // =======================================================
(PID.TID 0000.0001) // Begin MONITOR dynamic field statistics
(PID.TID 0000.0001) // =======================================================
(PID.TID 0000.0001) %MON time_tsnumber                =                   115
(PID.TID 0000.0001) %MON time_secondsf                =   4.9680000000000E+06
(PID.TID 0000.0001) %MON dynstat_eta_max              =   8.1237654192960E-01
(PID.TID 0000.0001) %MON dynstat_eta_min              =  -1.4671566653991E+00
(PID.TID 0000.0001) %MON dynstat_eta_mean             =  -2.2513593924827E-17
(PID.TID 0000.0001) %MON dynstat_eta_sd               =   4.8573193748082E-01
(PID.TID 0000.0001) %MON dynstat_eta_del2             =   1.8843600719293E-02
(PID.TID 0000.0001) %MON dynstat_uvel_max             =   2.0225032468476E-01
(PID.TID 0000.0001) %MON dynstat_uvel_min             =  -1.3809159886415E-01
(PID.TID 0000.0001) %MON dynstat_uvel_mean            =   9.3150949931853E-04
(PID.TID 0000.0001) %MON dynstat_uvel_sd              =   1.6559845125700E-02
(PID.TID 0000.0001) %MON dynstat_uvel_del2            =   4.5921798281334E-03
(PID.TID 0000.0001) %MON dynstat_vvel_max             =   1.7044542425435E-01
(PID.TID 0000.0001) %MON dynstat_vvel_min             =  -1.4364868278620E-01
(PID.TID 0000.0001) %MON dynstat_vvel_mean            =   1.6735189341415E-03
(PID.TID 0000.0001) %MON dynstat_vvel_sd              =   1.4291050576048E-02
(PID.TID 0000.0001) %MON dynstat_vvel_del2            =   4.1380703621998E-03
(PID.TID 0000.0001) %MON dynstat_wvel_max             =   3.0890764824373E-04
(PID.TID 0000.0001) %MON dynstat_wvel_min             =  -1.7712863062706E-04
(PID.TID 0000.0001) %MON dynstat_wvel_mean            =  -2.9430692781875E-23
(PID.TID 0000.0001) %MON dynstat_wvel_sd              =   1.9377840593327E-05
(PID.TID 0000.0001) %MON dynstat_wvel_del2            =   7.3398816390482E-06
(PID.TID 0000.0001) %MON dynstat_theta_max            =   2.9886901876189E+01
(PID.TID 0000.0001) %MON dynstat_theta_min            =  -1.9280857101175E+00
(PID.TID 0000.0001) %MON dynstat_theta_mean           =   3.5886605444074E+00
(PID.TID 0000.0001) %MON dynstat_theta_sd             =   4.3348159398884E+00
(PID.TID 0000.0001) %MON dynstat_theta_del2           =   1.2735355419989E-01
(PID.TID 0000.0001) %MON dynstat_salt_max             =   3.7382112979196E+01
(PID.TID 0000.0001) %MON dynstat_salt_min             =   2.9700413782408E+01
(PID.TID 0000.0001) %MON dynstat_salt_mean            =   3.4716035866235E+01
(PID.TID 0000.0001) %MON dynstat_salt_sd              =   2.9297425976064E-01
(PID.TID 0000.0001) %MON dynstat_salt_del2            =   2.2463960131369E-02
(PID.TID 0000.0001) %MON advcfl_uvel_max              =   3.3425468083594E-02
(PID.TID 0000.0001) %MON advcfl_vvel_max              =   1.6557406158333E-02
(PID.TID 0000.0001) %MON advcfl_wvel_max              =   6.6544576853337E-02
(PID.TID 0000.0001) %MON advcfl_W_hf_max              =   7.4729543842285E-02
(PID.TID 0000.0001) %MON pe_b_mean                    =   3.0190792953173E-04
(PID.TID 0000.0001) %MON ke_max                       =   2.1287150326364E-02
(PID.TID 0000.0001) %MON ke_mean                      =   2.1792735240673E-04
(PID.TID 0000.0001) %MON ke_vol                       =   1.3226782436723E+18
(PID.TID 0000.0001) %MON vort_r_min                   =  -8.3605168524528E-07
(PID.TID 0000.0001) %MON vort_r_max                   =   6.2728135007937E-07
(PID.TID 0000.0001) %MON vort_a_mean                  =  -2.5205768939521E-05
(PID.TID 0000.0001) %MON vort_a_sd                    =   7.3403415389561E-05
(PID.TID 0000.0001) %MON vort_p_mean                  =  -3.1758668985543E-05
(PID.TID 0000.0001) %MON vort_p_sd                    =   1.3126106622417E-04
(PID.TID 0000.0001) %MON surfExpan_theta_mean         =   1.9342386293133E-06
(PID.TID 0000.0001) %MON surfExpan_salt_mean          =  -4.2835855955324E-07
(PID.TID 0000.0001) // =======================================================
(PID.TID 0000.0001) // End MONITOR dynamic field statistics
(PID.TID 0000.0001) // =======================================================
time,SST,SSS,fu,fv,Q,E-P,i0,i1,a,b =   4.9680E+06 -3.8688E-01  3.4487E+01 -1.9753E-02 -1.0528E-02  2.3003E+02  0.0000E+00     2     3  4.1667E-01  5.8333E-01
time,fu0,fu1,fu =   4.9680E+06 -1.4435E-02 -2.7199E-02 -1.9753E-02  4.1667E-01  5.8333E-01
 cg2d: Sum(rhs),rhsMax =  -1.25177646026486E-14  7.15894868537902E+00
(PID.TID 0000.0001)                    cg2d_init_res =    3.03393776111395E-01
(PID.TID 0000.0001)                       cg2d_iters =    24
(PID.TID 0000.0001)                         cg2d_res =    4.88629144246230E-14
(PID.TID 0000.0001) // =======================================================
(PID.TID 0000.0001) // Begin MONITOR dynamic field statistics
(PID.TID 0000.0001) // =======================================================
(PID.TID 0000.0001) %MON time_tsnumber                =                   116
(PID.TID 0000.0001) %MON time_secondsf                =   5.0112000000000E+06
(PID.TID 0000.0001) %MON dynstat_eta_max              =   8.1536774573266E-01
(PID.TID 0000.0001) %MON dynstat_eta_min              =  -1.4706829170829E+00
(PID.TID 0000.0001) %MON dynstat_eta_mean             =   1.6488918422088E-16
(PID.TID 0000.0001) %MON dynstat_eta_sd               =   4.8690764646567E-01
(PID.TID 0000.0001) %MON dynstat_eta_del2             =   1.8854166697448E-02
(PID.TID 0000.0001) %MON dynstat_uvel_max             =   2.0080339429493E-01
(PID.TID 0000.0001) %MON dynstat_uvel_min             =  -1.3680119864490E-01
(PID.TID 0000.0001) %MON dynstat_uvel_mean            =   9.3863742065583E-04
(PID.TID 0000.0001) %MON dynstat_uvel_sd              =   1.6600797428210E-02
(PID.TID 0000.0001) %MON dynstat_uvel_del2            =   4.5754002161994E-03
(PID.TID 0000.0001) %MON dynstat_vvel_max             =   1.7099512271737E-01
(PID.TID 0000.0001) %MON dynstat_vvel_min             =  -1.4413561858241E-01
(PID.TID 0000.0001) %MON dynstat_vvel_mean            =   1.6825217878987E-03
(PID.TID 0000.0001) %MON dynstat_vvel_sd              =   1.4283854617303E-02
(PID.TID 0000.0001) %MON dynstat_vvel_del2            =   4.1304509815479E-03
(PID.TID 0000.0001) %MON dynstat_wvel_max             =   3.0366200062455E-04
(PID.TID 0000.0001) %MON dynstat_wvel_min             =  -1.7628564054187E-04
(PID.TID 0000.0001) %MON dynstat_wvel_mean            =   9.8679225708538E-23
(PID.TID 0000.0001) %MON dynstat_wvel_sd              =   1.9273724184708E-05
(PID.TID 0000.0001) %MON dynstat_wvel_del2            =   7.2975784021558E-06
(PID.TID 0000.0001) %MON dynstat_theta_max            =   2.9888962422468E+01
(PID.TID 0000.0001) %MON dynstat_theta_min            =  -1.9277394026265E+00
(PID.TID 0000.0001) %MON dynstat_theta_mean           =   3.5886788985890E+00
(PID.TID 0000.0001) %MON dynstat_theta_sd             =   4.3349609952127E+00
(PID.TID 0000.0001) %MON dynstat_theta_del2           =   1.2721371816093E-01
(PID.TID 0000.0001) %MON dynstat_salt_max             =   3.7381651410413E+01
(PID.TID 0000.0001) %MON dynstat_salt_min             =   2.9699215353720E+01
(PID.TID 0000.0001) %MON dynstat_salt_mean            =   3.4716041314079E+01
(PID.TID 0000.0001) %MON dynstat_salt_sd              =   2.9294160105162E-01
(PID.TID 0000.0001) %MON dynstat_salt_del2            =   2.2437012458097E-02
(PID.TID 0000.0001) %MON advcfl_uvel_max              =   3.3186337067909E-02
(PID.TID 0000.0001) %MON advcfl_vvel_max              =   1.6610804955964E-02
(PID.TID 0000.0001) %MON advcfl_wvel_max              =   6.7667384712120E-02
(PID.TID 0000.0001) %MON advcfl_W_hf_max              =   7.5818124268455E-02
(PID.TID 0000.0001) %MON pe_b_mean                    =   3.0337122820069E-04
(PID.TID 0000.0001) %MON ke_max                       =   2.1329163571281E-02
(PID.TID 0000.0001) %MON ke_mean                      =   2.1847162142107E-04
(PID.TID 0000.0001) %MON ke_vol                       =   1.3226782436723E+18
(PID.TID 0000.0001) %MON vort_r_min                   =  -8.3470837054041E-07
(PID.TID 0000.0001) %MON vort_r_max                   =   6.2234811778985E-07
(PID.TID 0000.0001) %MON vort_a_mean                  =  -2.5205768969777E-05
(PID.TID 0000.0001) %MON vort_a_sd                    =   7.3403415556928E-05
(PID.TID 0000.0001) %MON vort_p_mean                  =  -3.1758669023666E-05
(PID.TID 0000.0001) %MON vort_p_sd                    =   1.3126102710911E-04
(PID.TID 0000.0001) %MON surfExpan_theta_mean         =   1.7799004581013E-06
(PID.TID 0000.0001) %MON surfExpan_salt_mean          =  -4.6910437202237E-07
(PID.TID 0000.0001) // =======================================================
(PID.TID 0000.0001) // End MONITOR dynamic field statistics
(PID.TID 0000.0001) // =======================================================
time,SST,SSS,fu,fv,Q,E-P,i0,i1,a,b =   5.0112E+06 -3.8108E-01  3.4490E+01 -1.9966E-02 -1.0244E-02  2.2961E+02  0.0000E+00     2     3  4.3333E-01  5.6667E-01
time,fu0,fu1,fu =   5.0112E+06 -1.4435E-02 -2.7199E-02 -1.9966E-02  4.3333E-01  5.6667E-01
 cg2d: Sum(rhs),rhsMax =   3.49303919122690E-14  7.16526402155296E+00
(PID.TID 0000.0001)                    cg2d_init_res =    2.94125370917880E-01
(PID.TID 0000.0001)                       cg2d_iters =    24
(PID.TID 0000.0001)                         cg2d_res =    5.00423846811264E-14
(PID.TID 0000.0001) // =======================================================
(PID.TID 0000.0001) // Begin MONITOR dynamic field statistics
(PID.TID 0000.0001) // =======================================================
(PID.TID 0000.0001) %MON time_tsnumber                =                   117
(PID.TID 0000.0001) %MON time_secondsf                =   5.0544000000000E+06
(PID.TID 0000.0001) %MON dynstat_eta_max              =   8.1642132113695E-01
(PID.TID 0000.0001) %MON dynstat_eta_min              =  -1.4740116200441E+00
(PID.TID 0000.0001) %MON dynstat_eta_mean             =  -8.4152700559986E-17
(PID.TID 0000.0001) %MON dynstat_eta_sd               =   4.8805744620183E-01
(PID.TID 0000.0001) %MON dynstat_eta_del2             =   1.8856783037686E-02
(PID.TID 0000.0001) %MON dynstat_uvel_max             =   1.9862724487546E-01
(PID.TID 0000.0001) %MON dynstat_uvel_min             =  -1.3618146731104E-01
(PID.TID 0000.0001) %MON dynstat_uvel_mean            =   9.4514020073857E-04
(PID.TID 0000.0001) %MON dynstat_uvel_sd              =   1.6635002785307E-02
(PID.TID 0000.0001) %MON dynstat_uvel_del2            =   4.5586486875229E-03
(PID.TID 0000.0001) %MON dynstat_vvel_max             =   1.7139516711669E-01
(PID.TID 0000.0001) %MON dynstat_vvel_min             =  -1.4445545933764E-01
(PID.TID 0000.0001) %MON dynstat_vvel_mean            =   1.6851302325801E-03
(PID.TID 0000.0001) %MON dynstat_vvel_sd              =   1.4271252575721E-02
(PID.TID 0000.0001) %MON dynstat_vvel_del2            =   4.1223218570742E-03
(PID.TID 0000.0001) %MON dynstat_wvel_max             =   2.9848070794922E-04
(PID.TID 0000.0001) %MON dynstat_wvel_min             =  -1.7551350697777E-04
(PID.TID 0000.0001) %MON dynstat_wvel_mean            =  -7.0875528496423E-23
(PID.TID 0000.0001) %MON dynstat_wvel_sd              =   1.9165199653171E-05
(PID.TID 0000.0001) %MON dynstat_wvel_del2            =   7.2527131707733E-06
(PID.TID 0000.0001) %MON dynstat_theta_max            =   2.9890412059413E+01
(PID.TID 0000.0001) %MON dynstat_theta_min            =  -1.9273585651614E+00
(PID.TID 0000.0001) %MON dynstat_theta_mean           =   3.5886977465253E+00
(PID.TID 0000.0001) %MON dynstat_theta_sd             =   4.3351044856688E+00
(PID.TID 0000.0001) %MON dynstat_theta_del2           =   1.2708977584443E-01
(PID.TID 0000.0001) %MON dynstat_salt_max             =   3.7381193400306E+01
(PID.TID 0000.0001) %MON dynstat_salt_min             =   2.9698055490089E+01
(PID.TID 0000.0001) %MON dynstat_salt_mean            =   3.4716047141065E+01
(PID.TID 0000.0001) %MON dynstat_salt_sd              =   2.9290938632570E-01
(PID.TID 0000.0001) %MON dynstat_salt_del2            =   2.2414960305986E-02
(PID.TID 0000.0001) %MON advcfl_uvel_max              =   3.2826689620722E-02
(PID.TID 0000.0001) %MON advcfl_vvel_max              =   1.6649666061388E-02
(PID.TID 0000.0001) %MON advcfl_wvel_max              =   6.7368767590638E-02
(PID.TID 0000.0001) %MON advcfl_W_hf_max              =   7.5490069333507E-02
(PID.TID 0000.0001) %MON pe_b_mean                    =   3.0480570150854E-04
(PID.TID 0000.0001) %MON ke_max                       =   2.1235816848178E-02
(PID.TID 0000.0001) %MON ke_mean                      =   2.1883606143972E-04
(PID.TID 0000.0001) %MON ke_vol                       =   1.3226782436723E+18
(PID.TID 0000.0001) %MON vort_r_min                   =  -8.3265413986459E-07
(PID.TID 0000.0001) %MON vort_r_max                   =   6.1575276685410E-07
(PID.TID 0000.0001) %MON vort_a_mean                  =  -2.5205768998587E-05
(PID.TID 0000.0001) %MON vort_a_sd                    =   7.3403415551346E-05
(PID.TID 0000.0001) %MON vort_p_mean                  =  -3.1758669059965E-05
(PID.TID 0000.0001) %MON vort_p_sd                    =   1.3126099147489E-04
(PID.TID 0000.0001) %MON surfExpan_theta_mean         =   1.6725075338227E-06
(PID.TID 0000.0001) %MON surfExpan_salt_mean          =  -5.0577882824930E-07
(PID.TID 0000.0001) // =======================================================
(PID.TID 0000.0001) // End MONITOR dynamic field statistics
(PID.TID 0000.0001) // =======================================================
time,SST,SSS,fu,fv,Q,E-P,i0,i1,a,b =   5.0544E+06 -3.7528E-01  3.4492E+01 -2.0179E-02 -9.9597E-03  2.2919E+02  0.0000E+00     2     3  4.5000E-01  5.5000E-01
time,fu0,fu1,fu =   5.0544E+06 -1.4435E-02 -2.7199E-02 -2.0179E-02  4.5000E-01  5.5000E-01
 cg2d: Sum(rhs),rhsMax =   3.54466456187197E-13  7.15340811126701E+00
(PID.TID 0000.0001)                    cg2d_init_res =    2.85501735504958E-01
(PID.TID 0000.0001)                       cg2d_iters =    24
(PID.TID 0000.0001)                         cg2d_res =    5.23404222886478E-14
(PID.TID 0000.0001) // =======================================================
(PID.TID 0000.0001) // Begin MONITOR dynamic field statistics
(PID.TID 0000.0001) // =======================================================
(PID.TID 0000.0001) %MON time_tsnumber                =                   118
(PID.TID 0000.0001) %MON time_secondsf                =   5.0976000000000E+06
(PID.TID 0000.0001) %MON dynstat_eta_max              =   8.1540657726176E-01
(PID.TID 0000.0001) %MON dynstat_eta_min              =  -1.4772617890788E+00
(PID.TID 0000.0001) %MON dynstat_eta_mean             =  -2.4280343251495E-16
(PID.TID 0000.0001) %MON dynstat_eta_sd               =   4.8917726931916E-01
(PID.TID 0000.0001) %MON dynstat_eta_del2             =   1.8874646672499E-02
(PID.TID 0000.0001) %MON dynstat_uvel_max             =   1.9577512150616E-01
(PID.TID 0000.0001) %MON dynstat_uvel_min             =  -1.3621416220256E-01
(PID.TID 0000.0001) %MON dynstat_uvel_mean            =   9.5065550386864E-04
(PID.TID 0000.0001) %MON dynstat_uvel_sd              =   1.6663467461736E-02
(PID.TID 0000.0001) %MON dynstat_uvel_del2            =   4.5432994269580E-03
(PID.TID 0000.0001) %MON dynstat_vvel_max             =   1.7164700419272E-01
(PID.TID 0000.0001) %MON dynstat_vvel_min             =  -1.4461776253607E-01
(PID.TID 0000.0001) %MON dynstat_vvel_mean            =   1.6819595015054E-03
(PID.TID 0000.0001) %MON dynstat_vvel_sd              =   1.4252134462012E-02
(PID.TID 0000.0001) %MON dynstat_vvel_del2            =   4.1127145942241E-03
(PID.TID 0000.0001) %MON dynstat_wvel_max             =   2.9338093985040E-04
(PID.TID 0000.0001) %MON dynstat_wvel_min             =  -1.7576823757407E-04
(PID.TID 0000.0001) %MON dynstat_wvel_mean            =   1.4730663618760E-22
(PID.TID 0000.0001) %MON dynstat_wvel_sd              =   1.9052934194781E-05
(PID.TID 0000.0001) %MON dynstat_wvel_del2            =   7.2075959366276E-06
(PID.TID 0000.0001) %MON dynstat_theta_max            =   2.9891205925024E+01
(PID.TID 0000.0001) %MON dynstat_theta_min            =  -1.9327922801902E+00
(PID.TID 0000.0001) %MON dynstat_theta_mean           =   3.5887164724602E+00
(PID.TID 0000.0001) %MON dynstat_theta_sd             =   4.3352456345626E+00
(PID.TID 0000.0001) %MON dynstat_theta_del2           =   1.2694488265123E-01
(PID.TID 0000.0001) %MON dynstat_salt_max             =   3.7380740428725E+01
(PID.TID 0000.0001) %MON dynstat_salt_min             =   2.9696933332164E+01
(PID.TID 0000.0001) %MON dynstat_salt_mean            =   3.4716053281592E+01
(PID.TID 0000.0001) %MON dynstat_salt_sd              =   2.9287807533350E-01
(PID.TID 0000.0001) %MON dynstat_salt_del2            =   2.2388802053736E-02
(PID.TID 0000.0001) %MON advcfl_uvel_max              =   3.2355325439727E-02
(PID.TID 0000.0001) %MON advcfl_vvel_max              =   1.6674130013833E-02
(PID.TID 0000.0001) %MON advcfl_wvel_max              =   6.5730579704780E-02
(PID.TID 0000.0001) %MON advcfl_W_hf_max              =   7.3827171372073E-02
(PID.TID 0000.0001) %MON pe_b_mean                    =   3.0620602867886E-04
(PID.TID 0000.0001) %MON ke_max                       =   2.1012067142312E-02
(PID.TID 0000.0001) %MON ke_mean                      =   2.1902181724192E-04
(PID.TID 0000.0001) %MON ke_vol                       =   1.3226782436723E+18
(PID.TID 0000.0001) %MON vort_r_min                   =  -8.2996807103191E-07
(PID.TID 0000.0001) %MON vort_r_max                   =   6.0761109139553E-07
(PID.TID 0000.0001) %MON vort_a_mean                  =  -2.5205769024235E-05
(PID.TID 0000.0001) %MON vort_a_sd                    =   7.3403415295108E-05
(PID.TID 0000.0001) %MON vort_p_mean                  =  -3.1758669092281E-05
(PID.TID 0000.0001) %MON vort_p_sd                    =   1.3126095918164E-04
(PID.TID 0000.0001) %MON surfExpan_theta_mean         =   1.6181957699212E-06
(PID.TID 0000.0001) %MON surfExpan_salt_mean          =  -5.3714475714910E-07
(PID.TID 0000.0001) // =======================================================
(PID.TID 0000.0001) // End MONITOR dynamic field statistics
(PID.TID 0000.0001) // =======================================================
time,SST,SSS,fu,fv,Q,E-P,i0,i1,a,b =   5.0976E+06 -3.6948E-01  3.4495E+01 -2.0391E-02 -9.6754E-03  2.2877E+02  0.0000E+00     2     3  4.6667E-01  5.3333E-01
time,fu0,fu1,fu =   5.0976E+06 -1.4435E-02 -2.7199E-02 -2.0391E-02  4.6667E-01  5.3333E-01
 cg2d: Sum(rhs),rhsMax =  -1.83686399424232E-13  7.12293509522224E+00
(PID.TID 0000.0001)                    cg2d_init_res =    2.78011804994937E-01
(PID.TID 0000.0001)                       cg2d_iters =    24
(PID.TID 0000.0001)                         cg2d_res =    5.51215829618113E-14
(PID.TID 0000.0001) // =======================================================
(PID.TID 0000.0001) // Begin MONITOR dynamic field statistics
(PID.TID 0000.0001) // =======================================================
(PID.TID 0000.0001) %MON time_tsnumber                =                   119
(PID.TID 0000.0001) %MON time_secondsf                =   5.1408000000000E+06
(PID.TID 0000.0001) %MON dynstat_eta_max              =   8.1227308089058E-01
(PID.TID 0000.0001) %MON dynstat_eta_min              =  -1.4805295543722E+00
(PID.TID 0000.0001) %MON dynstat_eta_mean             =   1.3351291723574E-16
(PID.TID 0000.0001) %MON dynstat_eta_sd               =   4.9026490625574E-01
(PID.TID 0000.0001) %MON dynstat_eta_del2             =   1.8903271534298E-02
(PID.TID 0000.0001) %MON dynstat_uvel_max             =   1.9231123737244E-01
(PID.TID 0000.0001) %MON dynstat_uvel_min             =  -1.3619054639981E-01
(PID.TID 0000.0001) %MON dynstat_uvel_mean            =   9.5483027631694E-04
(PID.TID 0000.0001) %MON dynstat_uvel_sd              =   1.6687087718488E-02
(PID.TID 0000.0001) %MON dynstat_uvel_del2            =   4.5289514929664E-03
(PID.TID 0000.0001) %MON dynstat_vvel_max             =   1.7175252198084E-01
(PID.TID 0000.0001) %MON dynstat_vvel_min             =  -1.4463308776081E-01
(PID.TID 0000.0001) %MON dynstat_vvel_mean            =   1.6736649211703E-03
(PID.TID 0000.0001) %MON dynstat_vvel_sd              =   1.4225749426902E-02
(PID.TID 0000.0001) %MON dynstat_vvel_del2            =   4.1027796822259E-03
(PID.TID 0000.0001) %MON dynstat_wvel_max             =   2.8837658423807E-04
(PID.TID 0000.0001) %MON dynstat_wvel_min             =  -1.7589641287950E-04
(PID.TID 0000.0001) %MON dynstat_wvel_mean            =  -1.3861030571039E-22
(PID.TID 0000.0001) %MON dynstat_wvel_sd              =   1.8937544053182E-05
(PID.TID 0000.0001) %MON dynstat_wvel_del2            =   7.1634960834391E-06
(PID.TID 0000.0001) %MON dynstat_theta_max            =   2.9891307649859E+01
(PID.TID 0000.0001) %MON dynstat_theta_min            =  -1.9305193644366E+00
(PID.TID 0000.0001) %MON dynstat_theta_mean           =   3.5887344403579E+00
(PID.TID 0000.0001) %MON dynstat_theta_sd             =   4.3353775386931E+00
(PID.TID 0000.0001) %MON dynstat_theta_del2           =   1.2694102953351E-01
(PID.TID 0000.0001) %MON dynstat_salt_max             =   3.7380293705434E+01
(PID.TID 0000.0001) %MON dynstat_salt_min             =   2.9695847708485E+01
(PID.TID 0000.0001) %MON dynstat_salt_mean            =   3.4716059654860E+01
(PID.TID 0000.0001) %MON dynstat_salt_sd              =   2.9284364945471E-01
(PID.TID 0000.0001) %MON dynstat_salt_del2            =   2.2391782726291E-02
(PID.TID 0000.0001) %MON advcfl_uvel_max              =   3.1782856897402E-02
(PID.TID 0000.0001) %MON advcfl_vvel_max              =   1.6684380220798E-02
(PID.TID 0000.0001) %MON advcfl_wvel_max              =   6.2863122363796E-02
(PID.TID 0000.0001) %MON advcfl_W_hf_max              =   7.0939223346211E-02
(PID.TID 0000.0001) %MON pe_b_mean                    =   3.0756917962490E-04
(PID.TID 0000.0001) %MON ke_max                       =   2.0665391128247E-02
(PID.TID 0000.0001) %MON ke_mean                      =   2.1903348987298E-04
(PID.TID 0000.0001) %MON ke_vol                       =   1.3226782436723E+18
(PID.TID 0000.0001) %MON vort_r_min                   =  -8.2672941105247E-07
(PID.TID 0000.0001) %MON vort_r_max                   =   5.9806086757001E-07
(PID.TID 0000.0001) %MON vort_a_mean                  =  -2.5205769049284E-05
(PID.TID 0000.0001) %MON vort_a_sd                    =   7.3403414671851E-05
(PID.TID 0000.0001) %MON vort_p_mean                  =  -3.1758669123842E-05
(PID.TID 0000.0001) %MON vort_p_sd                    =   1.3126092983438E-04
(PID.TID 0000.0001) %MON surfExpan_theta_mean         =   1.6172763015450E-06
(PID.TID 0000.0001) %MON surfExpan_salt_mean          =  -5.6282593712000E-07
(PID.TID 0000.0001) // =======================================================
(PID.TID 0000.0001) // End MONITOR dynamic field statistics
(PID.TID 0000.0001) // =======================================================
time,SST,SSS,fu,fv,Q,E-P,i0,i1,a,b =   5.1408E+06 -3.6368E-01  3.4497E+01 -2.0604E-02 -9.3911E-03  2.2836E+02  0.0000E+00     2     3  4.8333E-01  5.1667E-01
time,fu0,fu1,fu =   5.1408E+06 -1.4435E-02 -2.7199E-02 -2.0604E-02  4.8333E-01  5.1667E-01
 cg2d: Sum(rhs),rhsMax =  -1.90930604659911E-13  7.07410832745053E+00
(PID.TID 0000.0001)                    cg2d_init_res =    2.72257106082864E-01
(PID.TID 0000.0001)                       cg2d_iters =    24
(PID.TID 0000.0001)                         cg2d_res =    5.74794007057352E-14
(PID.TID 0000.0001) // =======================================================
(PID.TID 0000.0001) // Begin MONITOR dynamic field statistics
(PID.TID 0000.0001) // =======================================================
(PID.TID 0000.0001) %MON time_tsnumber                =                   120
(PID.TID 0000.0001) %MON time_secondsf                =   5.1840000000000E+06
(PID.TID 0000.0001) %MON dynstat_eta_max              =   8.0705031914285E-01
(PID.TID 0000.0001) %MON dynstat_eta_min              =  -1.4838863866094E+00
(PID.TID 0000.0001) %MON dynstat_eta_mean             =   2.9170385960914E-17
(PID.TID 0000.0001) %MON dynstat_eta_sd               =   4.9132046262460E-01
(PID.TID 0000.0001) %MON dynstat_eta_del2             =   1.8916865394701E-02
(PID.TID 0000.0001) %MON dynstat_uvel_max             =   1.8830940166253E-01
(PID.TID 0000.0001) %MON dynstat_uvel_min             =  -1.3611341125284E-01
(PID.TID 0000.0001) %MON dynstat_uvel_mean            =   9.5732624745677E-04
(PID.TID 0000.0001) %MON dynstat_uvel_sd              =   1.6706563009949E-02
(PID.TID 0000.0001) %MON dynstat_uvel_del2            =   4.5159278019972E-03
(PID.TID 0000.0001) %MON dynstat_vvel_max             =   1.7171394290887E-01
(PID.TID 0000.0001) %MON dynstat_vvel_min             =  -1.4451275033757E-01
(PID.TID 0000.0001) %MON dynstat_vvel_mean            =   1.6608736601181E-03
(PID.TID 0000.0001) %MON dynstat_vvel_sd              =   1.4191760609335E-02
(PID.TID 0000.0001) %MON dynstat_vvel_del2            =   4.0926552355706E-03
(PID.TID 0000.0001) %MON dynstat_wvel_max             =   2.8347834992030E-04
(PID.TID 0000.0001) %MON dynstat_wvel_min             =  -1.7569162297240E-04
(PID.TID 0000.0001) %MON dynstat_wvel_mean            =  -4.4147354293989E-22
(PID.TID 0000.0001) %MON dynstat_wvel_sd              =   1.8819503440634E-05
(PID.TID 0000.0001) %MON dynstat_wvel_del2            =   7.1188256934512E-06
(PID.TID 0000.0001) %MON dynstat_theta_max            =   2.9890676181634E+01
(PID.TID 0000.0001) %MON dynstat_theta_min            =  -1.9280847418020E+00
(PID.TID 0000.0001) %MON dynstat_theta_mean           =   3.5887509588838E+00
(PID.TID 0000.0001) %MON dynstat_theta_sd             =   4.3355059923260E+00
(PID.TID 0000.0001) %MON dynstat_theta_del2           =   1.2680423308605E-01
(PID.TID 0000.0001) %MON dynstat_salt_max             =   3.7379850212402E+01
(PID.TID 0000.0001) %MON dynstat_salt_min             =   2.9694797133307E+01
(PID.TID 0000.0001) %MON dynstat_salt_mean            =   3.4716066179503E+01
(PID.TID 0000.0001) %MON dynstat_salt_sd              =   2.9281351588950E-01
(PID.TID 0000.0001) %MON dynstat_salt_del2            =   2.2367610975964E-02
(PID.TID 0000.0001) %MON advcfl_uvel_max              =   3.1121482276591E-02
(PID.TID 0000.0001) %MON advcfl_vvel_max              =   1.6680632573324E-02
(PID.TID 0000.0001) %MON advcfl_wvel_max              =   5.8901004984520E-02
(PID.TID 0000.0001) %MON advcfl_W_hf_max              =   6.6959920859879E-02
(PID.TID 0000.0001) %MON pe_b_mean                    =   3.0889501837213E-04
(PID.TID 0000.0001) %MON ke_max                       =   2.0205526413902E-02
(PID.TID 0000.0001) %MON ke_mean                      =   2.1887834894825E-04
(PID.TID 0000.0001) %MON ke_vol                       =   1.3226782436723E+18
(PID.TID 0000.0001) %MON vort_r_min                   =  -8.2301622259417E-07
(PID.TID 0000.0001) %MON vort_r_max                   =   5.8725917559394E-07
(PID.TID 0000.0001) %MON vort_a_mean                  =  -2.5205769072562E-05
(PID.TID 0000.0001) %MON vort_a_sd                    =   7.3403413610626E-05
(PID.TID 0000.0001) %MON vort_p_mean                  =  -3.1758669153173E-05
(PID.TID 0000.0001) %MON vort_p_sd                    =   1.3126090316874E-04
(PID.TID 0000.0001) %MON surfExpan_theta_mean         =   1.6769029943201E-06
(PID.TID 0000.0001) %MON surfExpan_salt_mean          =  -5.8081073045022E-07
(PID.TID 0000.0001) // =======================================================
(PID.TID 0000.0001) // End MONITOR dynamic field statistics
(PID.TID 0000.0001) // =======================================================
(PID.TID 0000.0001)  MDS_WRITE_RL_VEC: irec =  00000021   00066240
(PID.TID 0000.0001)  MDS_WRITE_RL_VEC: irec =  00000021   00066240
(PID.TID 0000.0001)  MDS_WRITE_RL_VEC: irec =  00000021   00066240
(PID.TID 0000.0001)  MDS_WRITE_RL_VEC: irec =  00000021   00066240
(PID.TID 0000.0001)  MDS_WRITE_RL_VEC: irec =  00000021   00066240
(PID.TID 0000.0001)  MDS_WRITE_RL_VEC: irec =  00000021   00066240
(PID.TID 0000.0001)  MDS_WRITE_RL_VEC: irec =  00000021   00066240
(PID.TID 0000.0001)  MDS_WRITE_RL_VEC: irec =  00000021   00066240
(PID.TID 0000.0001)  MDS_WRITE_RL_VEC: irec =  00000021   00066240
(PID.TID 0000.0001)  MDS_WRITE_RL_VEC: irec =  00000021   00066240
(PID.TID 0000.0001)  MDS_WRITE_RL_VEC: irec =  00000021   00066240
(PID.TID 0000.0001)  MDS_WRITE_RL_VEC: irec =  00000021   00004416
(PID.TID 0000.0001)  MDS_WRITE_RL_VEC: irec =  00000021   00066240
(PID.TID 0000.0001)  MDS_WRITE_RL_VEC: irec =  00000021   00004416
(PID.TID 0000.0001)  MDS_WRITE_RL_VEC: irec =  00000021   00004416
(PID.TID 0000.0001)  MDS_WRITE_RL_VEC: irec =  00000021   00004416
(PID.TID 0000.0001)  MDS_WRITE_RL_VEC: irec =  00000021   00004416
(PID.TID 0000.0001)  MDS_WRITE_RL_VEC: irec =  00000021   00004416
(PID.TID 0000.0001)  MDS_WRITE_RL_VEC: irec =  00000021   00004416
(PID.TID 0000.0001)  MDS_WRITE_RL_VEC: irec =  00000021   00004416
(PID.TID 0000.0001)  MDS_WRITE_RL_VEC: irec =  00000021   00004416
(PID.TID 0000.0001)  MDS_WRITE_RL_VEC: irec =  00000021   00004416
(PID.TID 0000.0001)  MDS_WRITE_RL_VEC: irec =  00000021   00004416
(PID.TID 0000.0001)  MDS_WRITE_RL_VEC: irec =  00000021   00004416
(PID.TID 0000.0001)  MDS_WRITE_RL_VEC: irec =  00000021   00004416
(PID.TID 0000.0001)  MDS_WRITE_RL_VEC: irec =  00000021   00004416
(PID.TID 0000.0001)  MDS_WRITE_RL_VEC: irec =  00000021   00004416
(PID.TID 0000.0001)  MDS_WRITE_RL_VEC: irec =  00000021   00004416
(PID.TID 0000.0001)  MDS_WRITE_RL_VEC: irec =  00000021   00004416
(PID.TID 0000.0001)  MDS_WRITE_RL_VEC: irec =  00000021   00004416
(PID.TID 0000.0001)  MDS_WRITE_RL_VEC: irec =  00000021   00004416
(PID.TID 0000.0001)  MDSREADVECTOR: opening file: tapelev2_1_the_main_loop_gs.it0000.001.001.data
(PID.TID 0000.0001)  MDS_READ_RL_VEC: irec =  00000021   00066240
(PID.TID 0000.0001)  MDSREADVECTOR: opening file: tapelev2_2_the_main_loop_gt.it0000.001.001.data
(PID.TID 0000.0001)  MDS_READ_RL_VEC: irec =  00000021   00066240
(PID.TID 0000.0001)  MDSREADVECTOR: opening file: tapelev2_3_the_main_loop_gsnm1.it0000.001.001.data
(PID.TID 0000.0001)  MDS_READ_RL_VEC: irec =  00000021   00066240
(PID.TID 0000.0001)  MDSREADVECTOR: opening file: tapelev2_4_the_main_loop_gtnm1.it0000.001.001.data
(PID.TID 0000.0001)  MDS_READ_RL_VEC: irec =  00000021   00066240
(PID.TID 0000.0001)  MDSREADVECTOR: opening file: tapelev2_5_the_main_loop_gunm1.it0000.001.001.data
(PID.TID 0000.0001)  MDS_READ_RL_VEC: irec =  00000021   00066240
(PID.TID 0000.0001)  MDSREADVECTOR: opening file: tapelev2_6_the_main_loop_gvnm1.it0000.001.001.data
(PID.TID 0000.0001)  MDS_READ_RL_VEC: irec =  00000021   00066240
(PID.TID 0000.0001)  MDSREADVECTOR: opening file: tapelev2_7_the_main_loop_theta.it0000.001.001.data
(PID.TID 0000.0001)  MDS_READ_RL_VEC: irec =  00000021   00066240
(PID.TID 0000.0001)  MDSREADVECTOR: opening file: tapelev2_8_the_main_loop_salt.it0000.001.001.data
(PID.TID 0000.0001)  MDS_READ_RL_VEC: irec =  00000021   00066240
(PID.TID 0000.0001)  MDSREADVECTOR: opening file: tapelev2_9_the_main_loop_uvel.it0000.001.001.data
(PID.TID 0000.0001)  MDS_READ_RL_VEC: irec =  00000021   00066240
(PID.TID 0000.0001)  MDSREADVECTOR: opening file: tapelev2_10_the_main_loop_vvel.it0000.001.001.data
(PID.TID 0000.0001)  MDS_READ_RL_VEC: irec =  00000021   00066240
(PID.TID 0000.0001)  MDSREADVECTOR: opening file: tapelev2_11_the_main_loop_wvel.it0000.001.001.data
(PID.TID 0000.0001)  MDS_READ_RL_VEC: irec =  00000021   00066240
(PID.TID 0000.0001)  MDSREADVECTOR: opening file: tapelev2_12_the_main_loop_etan.it0000.001.001.data
(PID.TID 0000.0001)  MDS_READ_RL_VEC: irec =  00000021   00004416
(PID.TID 0000.0001)  MDSREADVECTOR: opening file: tapelev2_13_the_main_loop_totphihyd.it0000.001.001.data
(PID.TID 0000.0001)  MDS_READ_RL_VEC: irec =  00000021   00066240
(PID.TID 0000.0001)  MDSREADVECTOR: opening file: tapelev2_15_the_main_loop_surfaceforcingtice.it0000.001.001.data
(PID.TID 0000.0001)  MDS_READ_RL_VEC: irec =  00000021   00004416
(PID.TID 0000.0001)  MDSREADVECTOR: opening file: tapelev2_17_the_main_loop_etah.it0000.001.001.data
(PID.TID 0000.0001)  MDS_READ_RL_VEC: irec =  00000021   00004416
(PID.TID 0000.0001)  MDSREADVECTOR: opening file: tapelev2_18_the_main_loop_detahdt.it0000.001.001.data
(PID.TID 0000.0001)  MDS_READ_RL_VEC: irec =  00000021   00004416
(PID.TID 0000.0001)  MDSREADVECTOR: opening file: tapelev2_19_the_main_loop_pmepr.it0000.001.001.data
(PID.TID 0000.0001)  MDS_READ_RL_VEC: irec =  00000021   00004416
(PID.TID 0000.0001)  MDSREADVECTOR: opening file: tapelev2_20_the_main_loop_taux0.it0000.001.001.data
(PID.TID 0000.0001)  MDS_READ_RL_VEC: irec =  00000021   00004416
(PID.TID 0000.0001)  MDSREADVECTOR: opening file: tapelev2_21_the_main_loop_taux1.it0000.001.001.data
(PID.TID 0000.0001)  MDS_READ_RL_VEC: irec =  00000021   00004416
(PID.TID 0000.0001)  MDSREADVECTOR: opening file: tapelev2_22_the_main_loop_tauy0.it0000.001.001.data
(PID.TID 0000.0001)  MDS_READ_RL_VEC: irec =  00000021   00004416
(PID.TID 0000.0001)  MDSREADVECTOR: opening file: tapelev2_23_the_main_loop_tauy1.it0000.001.001.data
(PID.TID 0000.0001)  MDS_READ_RL_VEC: irec =  00000021   00004416
(PID.TID 0000.0001)  MDSREADVECTOR: opening file: tapelev2_24_the_main_loop_qnet0.it0000.001.001.data
(PID.TID 0000.0001)  MDS_READ_RL_VEC: irec =  00000021   00004416
(PID.TID 0000.0001)  MDSREADVECTOR: opening file: tapelev2_25_the_main_loop_qnet1.it0000.001.001.data
(PID.TID 0000.0001)  MDS_READ_RL_VEC: irec =  00000021   00004416
(PID.TID 0000.0001)  MDSREADVECTOR: opening file: tapelev2_26_the_main_loop_empmr0.it0000.001.001.data
(PID.TID 0000.0001)  MDS_READ_RL_VEC: irec =  00000021   00004416
(PID.TID 0000.0001)  MDSREADVECTOR: opening file: tapelev2_27_the_main_loop_empmr1.it0000.001.001.data
(PID.TID 0000.0001)  MDS_READ_RL_VEC: irec =  00000021   00004416
(PID.TID 0000.0001)  MDSREADVECTOR: opening file: tapelev2_28_the_main_loop_sst0.it0000.001.001.data
(PID.TID 0000.0001)  MDS_READ_RL_VEC: irec =  00000021   00004416
(PID.TID 0000.0001)  MDSREADVECTOR: opening file: tapelev2_29_the_main_loop_sst1.it0000.001.001.data
(PID.TID 0000.0001)  MDS_READ_RL_VEC: irec =  00000021   00004416
(PID.TID 0000.0001)  MDSREADVECTOR: opening file: tapelev2_30_the_main_loop_sss0.it0000.001.001.data
(PID.TID 0000.0001)  MDS_READ_RL_VEC: irec =  00000021   00004416
(PID.TID 0000.0001)  MDSREADVECTOR: opening file: tapelev2_31_the_main_loop_sss1.it0000.001.001.data
(PID.TID 0000.0001)  MDS_READ_RL_VEC: irec =  00000021   00004416
(PID.TID 0000.0001)  MDSREADVECTOR: opening file: tapelev2_32_the_main_loop_qsw0.it0000.001.001.data
(PID.TID 0000.0001)  MDS_READ_RL_VEC: irec =  00000021   00004416
(PID.TID 0000.0001)  MDSREADVECTOR: opening file: tapelev2_33_the_main_loop_qsw1.it0000.001.001.data
(PID.TID 0000.0001)  MDS_READ_RL_VEC: irec =  00000021   00004416
(PID.TID 0000.0001)  MDSREADVECTOR: opening file: tapelev2_1_the_main_loop_gs.it0000.001.001.data
(PID.TID 0000.0001)  MDS_READ_RL_VEC: irec =  00000020   00066240
(PID.TID 0000.0001)  MDSREADVECTOR: opening file: tapelev2_2_the_main_loop_gt.it0000.001.001.data
(PID.TID 0000.0001)  MDS_READ_RL_VEC: irec =  00000020   00066240
(PID.TID 0000.0001)  MDSREADVECTOR: opening file: tapelev2_3_the_main_loop_gsnm1.it0000.001.001.data
(PID.TID 0000.0001)  MDS_READ_RL_VEC: irec =  00000020   00066240
(PID.TID 0000.0001)  MDSREADVECTOR: opening file: tapelev2_4_the_main_loop_gtnm1.it0000.001.001.data
(PID.TID 0000.0001)  MDS_READ_RL_VEC: irec =  00000020   00066240
(PID.TID 0000.0001)  MDSREADVECTOR: opening file: tapelev2_5_the_main_loop_gunm1.it0000.001.001.data
(PID.TID 0000.0001)  MDS_READ_RL_VEC: irec =  00000020   00066240
(PID.TID 0000.0001)  MDSREADVECTOR: opening file: tapelev2_6_the_main_loop_gvnm1.it0000.001.001.data
(PID.TID 0000.0001)  MDS_READ_RL_VEC: irec =  00000020   00066240
(PID.TID 0000.0001)  MDSREADVECTOR: opening file: tapelev2_7_the_main_loop_theta.it0000.001.001.data
(PID.TID 0000.0001)  MDS_READ_RL_VEC: irec =  00000020   00066240
(PID.TID 0000.0001)  MDSREADVECTOR: opening file: tapelev2_8_the_main_loop_salt.it0000.001.001.data
(PID.TID 0000.0001)  MDS_READ_RL_VEC: irec =  00000020   00066240
(PID.TID 0000.0001)  MDSREADVECTOR: opening file: tapelev2_9_the_main_loop_uvel.it0000.001.001.data
(PID.TID 0000.0001)  MDS_READ_RL_VEC: irec =  00000020   00066240
(PID.TID 0000.0001)  MDSREADVECTOR: opening file: tapelev2_10_the_main_loop_vvel.it0000.001.001.data
(PID.TID 0000.0001)  MDS_READ_RL_VEC: irec =  00000020   00066240
(PID.TID 0000.0001)  MDSREADVECTOR: opening file: tapelev2_11_the_main_loop_wvel.it0000.001.001.data
(PID.TID 0000.0001)  MDS_READ_RL_VEC: irec =  00000020   00066240
(PID.TID 0000.0001)  MDSREADVECTOR: opening file: tapelev2_12_the_main_loop_etan.it0000.001.001.data
(PID.TID 0000.0001)  MDS_READ_RL_VEC: irec =  00000020   00004416
(PID.TID 0000.0001)  MDSREADVECTOR: opening file: tapelev2_13_the_main_loop_totphihyd.it0000.001.001.data
(PID.TID 0000.0001)  MDS_READ_RL_VEC: irec =  00000020   00066240
(PID.TID 0000.0001)  MDSREADVECTOR: opening file: tapelev2_15_the_main_loop_surfaceforcingtice.it0000.001.001.data
(PID.TID 0000.0001)  MDS_READ_RL_VEC: irec =  00000020   00004416
(PID.TID 0000.0001)  MDSREADVECTOR: opening file: tapelev2_17_the_main_loop_etah.it0000.001.001.data
(PID.TID 0000.0001)  MDS_READ_RL_VEC: irec =  00000020   00004416
(PID.TID 0000.0001)  MDSREADVECTOR: opening file: tapelev2_18_the_main_loop_detahdt.it0000.001.001.data
(PID.TID 0000.0001)  MDS_READ_RL_VEC: irec =  00000020   00004416
(PID.TID 0000.0001)  MDSREADVECTOR: opening file: tapelev2_19_the_main_loop_pmepr.it0000.001.001.data
(PID.TID 0000.0001)  MDS_READ_RL_VEC: irec =  00000020   00004416
(PID.TID 0000.0001)  MDSREADVECTOR: opening file: tapelev2_20_the_main_loop_taux0.it0000.001.001.data
(PID.TID 0000.0001)  MDS_READ_RL_VEC: irec =  00000020   00004416
(PID.TID 0000.0001)  MDSREADVECTOR: opening file: tapelev2_21_the_main_loop_taux1.it0000.001.001.data
(PID.TID 0000.0001)  MDS_READ_RL_VEC: irec =  00000020   00004416
(PID.TID 0000.0001)  MDSREADVECTOR: opening file: tapelev2_22_the_main_loop_tauy0.it0000.001.001.data
(PID.TID 0000.0001)  MDS_READ_RL_VEC: irec =  00000020   00004416
(PID.TID 0000.0001)  MDSREADVECTOR: opening file: tapelev2_23_the_main_loop_tauy1.it0000.001.001.data
(PID.TID 0000.0001)  MDS_READ_RL_VEC: irec =  00000020   00004416
(PID.TID 0000.0001)  MDSREADVECTOR: opening file: tapelev2_24_the_main_loop_qnet0.it0000.001.001.data
(PID.TID 0000.0001)  MDS_READ_RL_VEC: irec =  00000020   00004416
(PID.TID 0000.0001)  MDSREADVECTOR: opening file: tapelev2_25_the_main_loop_qnet1.it0000.001.001.data
(PID.TID 0000.0001)  MDS_READ_RL_VEC: irec =  00000020   00004416
(PID.TID 0000.0001)  MDSREADVECTOR: opening file: tapelev2_26_the_main_loop_empmr0.it0000.001.001.data
(PID.TID 0000.0001)  MDS_READ_RL_VEC: irec =  00000020   00004416
(PID.TID 0000.0001)  MDSREADVECTOR: opening file: tapelev2_27_the_main_loop_empmr1.it0000.001.001.data
(PID.TID 0000.0001)  MDS_READ_RL_VEC: irec =  00000020   00004416
(PID.TID 0000.0001)  MDSREADVECTOR: opening file: tapelev2_28_the_main_loop_sst0.it0000.001.001.data
(PID.TID 0000.0001)  MDS_READ_RL_VEC: irec =  00000020   00004416
(PID.TID 0000.0001)  MDSREADVECTOR: opening file: tapelev2_29_the_main_loop_sst1.it0000.001.001.data
(PID.TID 0000.0001)  MDS_READ_RL_VEC: irec =  00000020   00004416
(PID.TID 0000.0001)  MDSREADVECTOR: opening file: tapelev2_30_the_main_loop_sss0.it0000.001.001.data
(PID.TID 0000.0001)  MDS_READ_RL_VEC: irec =  00000020   00004416
(PID.TID 0000.0001)  MDSREADVECTOR: opening file: tapelev2_31_the_main_loop_sss1.it0000.001.001.data
(PID.TID 0000.0001)  MDS_READ_RL_VEC: irec =  00000020   00004416
(PID.TID 0000.0001)  MDSREADVECTOR: opening file: tapelev2_32_the_main_loop_qsw0.it0000.001.001.data
(PID.TID 0000.0001)  MDS_READ_RL_VEC: irec =  00000020   00004416
(PID.TID 0000.0001)  MDSREADVECTOR: opening file: tapelev2_33_the_main_loop_qsw1.it0000.001.001.data
(PID.TID 0000.0001)  MDS_READ_RL_VEC: irec =  00000020   00004416
time,SST,SSS,fu,fv,Q,E-P,i0,i1,a,b =   4.9248E+06 -3.9268E-01  3.4484E+01 -1.9540E-02 -1.0813E-02  2.3045E+02  0.0000E+00     2     3  4.0000E-01  6.0000E-01
time,fu0,fu1,fu =   4.9248E+06 -1.4435E-02 -2.7199E-02 -1.9540E-02  4.0000E-01  6.0000E-01
 cg2d: Sum(rhs),rhsMax =  -6.98399671428263E-13  7.13562348870896E+00
(PID.TID 0000.0001)                    cg2d_init_res =    3.12662116511137E-01
(PID.TID 0000.0001)                       cg2d_iters =    24
(PID.TID 0000.0001)                         cg2d_res =    4.92032747124496E-14
time,SST,SSS,fu,fv,Q,E-P,i0,i1,a,b =   4.9680E+06 -3.8688E-01  3.4487E+01 -1.9753E-02 -1.0528E-02  2.3003E+02  0.0000E+00     2     3  4.1667E-01  5.8333E-01
time,fu0,fu1,fu =   4.9680E+06 -1.4435E-02 -2.7199E-02 -1.9753E-02  4.1667E-01  5.8333E-01
 cg2d: Sum(rhs),rhsMax =  -1.25177646026486E-14  7.15894868537902E+00
(PID.TID 0000.0001)                    cg2d_init_res =    3.03393776111395E-01
(PID.TID 0000.0001)                       cg2d_iters =    24
(PID.TID 0000.0001)                         cg2d_res =    4.88629144246230E-14
time,SST,SSS,fu,fv,Q,E-P,i0,i1,a,b =   5.0112E+06 -3.8108E-01  3.4490E+01 -1.9966E-02 -1.0244E-02  2.2961E+02  0.0000E+00     2     3  4.3333E-01  5.6667E-01
time,fu0,fu1,fu =   5.0112E+06 -1.4435E-02 -2.7199E-02 -1.9966E-02  4.3333E-01  5.6667E-01
 cg2d: Sum(rhs),rhsMax =   3.49303919122690E-14  7.16526402155296E+00
(PID.TID 0000.0001)                    cg2d_init_res =    2.94125370917880E-01
(PID.TID 0000.0001)                       cg2d_iters =    24
(PID.TID 0000.0001)                         cg2d_res =    5.00423846811264E-14
time,SST,SSS,fu,fv,Q,E-P,i0,i1,a,b =   5.0544E+06 -3.7528E-01  3.4492E+01 -2.0179E-02 -9.9597E-03  2.2919E+02  0.0000E+00     2     3  4.5000E-01  5.5000E-01
time,fu0,fu1,fu =   5.0544E+06 -1.4435E-02 -2.7199E-02 -2.0179E-02  4.5000E-01  5.5000E-01
 cg2d: Sum(rhs),rhsMax =   3.54466456187197E-13  7.15340811126701E+00
(PID.TID 0000.0001)                    cg2d_init_res =    2.85501735504958E-01
(PID.TID 0000.0001)                       cg2d_iters =    24
(PID.TID 0000.0001)                         cg2d_res =    5.23404222886478E-14
time,SST,SSS,fu,fv,Q,E-P,i0,i1,a,b =   5.0976E+06 -3.6948E-01  3.4495E+01 -2.0391E-02 -9.6754E-03  2.2877E+02  0.0000E+00     2     3  4.6667E-01  5.3333E-01
time,fu0,fu1,fu =   5.0976E+06 -1.4435E-02 -2.7199E-02 -2.0391E-02  4.6667E-01  5.3333E-01
 cg2d: Sum(rhs),rhsMax =  -1.83686399424232E-13  7.12293509522224E+00
(PID.TID 0000.0001)                    cg2d_init_res =    2.78011804994937E-01
(PID.TID 0000.0001)                       cg2d_iters =    24
(PID.TID 0000.0001)                         cg2d_res =    5.51215829618113E-14
time,SST,SSS,fu,fv,Q,E-P,i0,i1,a,b =   5.1408E+06 -3.6368E-01  3.4497E+01 -2.0604E-02 -9.3911E-03  2.2836E+02  0.0000E+00     2     3  4.8333E-01  5.1667E-01
time,fu0,fu1,fu =   5.1408E+06 -1.4435E-02 -2.7199E-02 -2.0604E-02  4.8333E-01  5.1667E-01
 cg2d: Sum(rhs),rhsMax =  -1.90930604659911E-13  7.07410832745053E+00
(PID.TID 0000.0001)                    cg2d_init_res =    2.72257106082864E-01
(PID.TID 0000.0001)                       cg2d_iters =    24
(PID.TID 0000.0001)                         cg2d_res =    5.74794007057352E-14
time,SST,SSS,fu,fv,Q,E-P,i0,i1,a,b =   5.1408E+06 -3.6368E-01  3.4497E+01 -2.0604E-02 -9.3911E-03  2.2836E+02  0.0000E+00     2     3  4.8333E-01  5.1667E-01
time,fu0,fu1,fu =   5.1408E+06 -1.4435E-02 -2.7199E-02 -2.0604E-02  4.8333E-01  5.1667E-01
 cg2d: Sum(rhs),rhsMax =  -1.62500221612127E-15  4.52107237956454E-07
time,SST,SSS,fu,fv,Q,E-P,i0,i1,a,b =   5.0976E+06 -3.6948E-01  3.4495E+01 -2.0391E-02 -9.6754E-03  2.2877E+02  0.0000E+00     2     3  4.6667E-01  5.3333E-01
time,fu0,fu1,fu =   5.0976E+06 -1.4435E-02 -2.7199E-02 -2.0391E-02  4.6667E-01  5.3333E-01
 cg2d: Sum(rhs),rhsMax =   6.82542464839692E-15  1.54286202852765E-07
time,SST,SSS,fu,fv,Q,E-P,i0,i1,a,b =   5.0544E+06 -3.7528E-01  3.4492E+01 -2.0179E-02 -9.9597E-03  2.2919E+02  0.0000E+00     2     3  4.5000E-01  5.5000E-01
time,fu0,fu1,fu =   5.0544E+06 -1.4435E-02 -2.7199E-02 -2.0179E-02  4.5000E-01  5.5000E-01
 cg2d: Sum(rhs),rhsMax =  -1.29700936390586E-15  2.12327017810229E-07
time,SST,SSS,fu,fv,Q,E-P,i0,i1,a,b =   5.0112E+06 -3.8108E-01  3.4490E+01 -1.9966E-02 -1.0244E-02  2.2961E+02  0.0000E+00     2     3  4.3333E-01  5.6667E-01
time,fu0,fu1,fu =   5.0112E+06 -1.4435E-02 -2.7199E-02 -1.9966E-02  4.3333E-01  5.6667E-01
 cg2d: Sum(rhs),rhsMax =  -2.95356056179803E-15  2.21079545498934E-07
time,SST,SSS,fu,fv,Q,E-P,i0,i1,a,b =   4.9680E+06 -3.8688E-01  3.4487E+01 -1.9753E-02 -1.0528E-02  2.3003E+02  0.0000E+00     2     3  4.1667E-01  5.8333E-01
time,fu0,fu1,fu =   4.9680E+06 -1.4435E-02 -2.7199E-02 -1.9753E-02  4.1667E-01  5.8333E-01
 cg2d: Sum(rhs),rhsMax =   4.14651721471355E-16  1.50915649465039E-07
time,SST,SSS,fu,fv,Q,E-P,i0,i1,a,b =   4.9248E+06 -3.9268E-01  3.4484E+01 -1.9540E-02 -1.0813E-02  2.3045E+02  0.0000E+00     2     3  4.0000E-01  6.0000E-01
time,fu0,fu1,fu =   4.9248E+06 -1.4435E-02 -2.7199E-02 -1.9540E-02  4.0000E-01  6.0000E-01
 cg2d: Sum(rhs),rhsMax =  -6.16585915699620E-16  1.16499010940972E-07
(PID.TID 0000.0001)  MDSREADVECTOR: opening file: tapelev2_1_the_main_loop_gs.it0000.001.001.data
(PID.TID 0000.0001)  MDS_READ_RL_VEC: irec =  00000019   00066240
(PID.TID 0000.0001)  MDSREADVECTOR: opening file: tapelev2_2_the_main_loop_gt.it0000.001.001.data
(PID.TID 0000.0001)  MDS_READ_RL_VEC: irec =  00000019   00066240
(PID.TID 0000.0001)  MDSREADVECTOR: opening file: tapelev2_3_the_main_loop_gsnm1.it0000.001.001.data
(PID.TID 0000.0001)  MDS_READ_RL_VEC: irec =  00000019   00066240
(PID.TID 0000.0001)  MDSREADVECTOR: opening file: tapelev2_4_the_main_loop_gtnm1.it0000.001.001.data
(PID.TID 0000.0001)  MDS_READ_RL_VEC: irec =  00000019   00066240
(PID.TID 0000.0001)  MDSREADVECTOR: opening file: tapelev2_5_the_main_loop_gunm1.it0000.001.001.data
(PID.TID 0000.0001)  MDS_READ_RL_VEC: irec =  00000019   00066240
(PID.TID 0000.0001)  MDSREADVECTOR: opening file: tapelev2_6_the_main_loop_gvnm1.it0000.001.001.data
(PID.TID 0000.0001)  MDS_READ_RL_VEC: irec =  00000019   00066240
(PID.TID 0000.0001)  MDSREADVECTOR: opening file: tapelev2_7_the_main_loop_theta.it0000.001.001.data
(PID.TID 0000.0001)  MDS_READ_RL_VEC: irec =  00000019   00066240
(PID.TID 0000.0001)  MDSREADVECTOR: opening file: tapelev2_8_the_main_loop_salt.it0000.001.001.data
(PID.TID 0000.0001)  MDS_READ_RL_VEC: irec =  00000019   00066240
(PID.TID 0000.0001)  MDSREADVECTOR: opening file: tapelev2_9_the_main_loop_uvel.it0000.001.001.data
(PID.TID 0000.0001)  MDS_READ_RL_VEC: irec =  00000019   00066240
(PID.TID 0000.0001)  MDSREADVECTOR: opening file: tapelev2_10_the_main_loop_vvel.it0000.001.001.data
(PID.TID 0000.0001)  MDS_READ_RL_VEC: irec =  00000019   00066240
(PID.TID 0000.0001)  MDSREADVECTOR: opening file: tapelev2_11_the_main_loop_wvel.it0000.001.001.data
(PID.TID 0000.0001)  MDS_READ_RL_VEC: irec =  00000019   00066240
(PID.TID 0000.0001)  MDSREADVECTOR: opening file: tapelev2_12_the_main_loop_etan.it0000.001.001.data
(PID.TID 0000.0001)  MDS_READ_RL_VEC: irec =  00000019   00004416
(PID.TID 0000.0001)  MDSREADVECTOR: opening file: tapelev2_13_the_main_loop_totphihyd.it0000.001.001.data
(PID.TID 0000.0001)  MDS_READ_RL_VEC: irec =  00000019   00066240
(PID.TID 0000.0001)  MDSREADVECTOR: opening file: tapelev2_15_the_main_loop_surfaceforcingtice.it0000.001.001.data
(PID.TID 0000.0001)  MDS_READ_RL_VEC: irec =  00000019   00004416
(PID.TID 0000.0001)  MDSREADVECTOR: opening file: tapelev2_17_the_main_loop_etah.it0000.001.001.data
(PID.TID 0000.0001)  MDS_READ_RL_VEC: irec =  00000019   00004416
(PID.TID 0000.0001)  MDSREADVECTOR: opening file: tapelev2_18_the_main_loop_detahdt.it0000.001.001.data
(PID.TID 0000.0001)  MDS_READ_RL_VEC: irec =  00000019   00004416
(PID.TID 0000.0001)  MDSREADVECTOR: opening file: tapelev2_19_the_main_loop_pmepr.it0000.001.001.data
(PID.TID 0000.0001)  MDS_READ_RL_VEC: irec =  00000019   00004416
(PID.TID 0000.0001)  MDSREADVECTOR: opening file: tapelev2_20_the_main_loop_taux0.it0000.001.001.data
(PID.TID 0000.0001)  MDS_READ_RL_VEC: irec =  00000019   00004416
(PID.TID 0000.0001)  MDSREADVECTOR: opening file: tapelev2_21_the_main_loop_taux1.it0000.001.001.data
(PID.TID 0000.0001)  MDS_READ_RL_VEC: irec =  00000019   00004416
(PID.TID 0000.0001)  MDSREADVECTOR: opening file: tapelev2_22_the_main_loop_tauy0.it0000.001.001.data
(PID.TID 0000.0001)  MDS_READ_RL_VEC: irec =  00000019   00004416
(PID.TID 0000.0001)  MDSREADVECTOR: opening file: tapelev2_23_the_main_loop_tauy1.it0000.001.001.data
(PID.TID 0000.0001)  MDS_READ_RL_VEC: irec =  00000019   00004416
(PID.TID 0000.0001)  MDSREADVECTOR: opening file: tapelev2_24_the_main_loop_qnet0.it0000.001.001.data
(PID.TID 0000.0001)  MDS_READ_RL_VEC: irec =  00000019   00004416
(PID.TID 0000.0001)  MDSREADVECTOR: opening file: tapelev2_25_the_main_loop_qnet1.it0000.001.001.data
(PID.TID 0000.0001)  MDS_READ_RL_VEC: irec =  00000019   00004416
(PID.TID 0000.0001)  MDSREADVECTOR: opening file: tapelev2_26_the_main_loop_empmr0.it0000.001.001.data
(PID.TID 0000.0001)  MDS_READ_RL_VEC: irec =  00000019   00004416
(PID.TID 0000.0001)  MDSREADVECTOR: opening file: tapelev2_27_the_main_loop_empmr1.it0000.001.001.data
(PID.TID 0000.0001)  MDS_READ_RL_VEC: irec =  00000019   00004416
(PID.TID 0000.0001)  MDSREADVECTOR: opening file: tapelev2_28_the_main_loop_sst0.it0000.001.001.data
(PID.TID 0000.0001)  MDS_READ_RL_VEC: irec =  00000019   00004416
(PID.TID 0000.0001)  MDSREADVECTOR: opening file: tapelev2_29_the_main_loop_sst1.it0000.001.001.data
(PID.TID 0000.0001)  MDS_READ_RL_VEC: irec =  00000019   00004416
(PID.TID 0000.0001)  MDSREADVECTOR: opening file: tapelev2_30_the_main_loop_sss0.it0000.001.001.data
(PID.TID 0000.0001)  MDS_READ_RL_VEC: irec =  00000019   00004416
(PID.TID 0000.0001)  MDSREADVECTOR: opening file: tapelev2_31_the_main_loop_sss1.it0000.001.001.data
(PID.TID 0000.0001)  MDS_READ_RL_VEC: irec =  00000019   00004416
(PID.TID 0000.0001)  MDSREADVECTOR: opening file: tapelev2_32_the_main_loop_qsw0.it0000.001.001.data
(PID.TID 0000.0001)  MDS_READ_RL_VEC: irec =  00000019   00004416
(PID.TID 0000.0001)  MDSREADVECTOR: opening file: tapelev2_33_the_main_loop_qsw1.it0000.001.001.data
(PID.TID 0000.0001)  MDS_READ_RL_VEC: irec =  00000019   00004416
time,SST,SSS,fu,fv,Q,E-P,i0,i1,a,b =   4.6656E+06 -4.2747E-01  3.4469E+01 -1.8264E-02 -1.2518E-02  2.3296E+02  0.0000E+00     2     3  3.0000E-01  7.0000E-01
time,fu0,fu1,fu =   4.6656E+06 -1.4435E-02 -2.7199E-02 -1.8264E-02  3.0000E-01  7.0000E-01
 cg2d: Sum(rhs),rhsMax =  -4.41036096532343E-13  6.77682342917120E+00
(PID.TID 0000.0001)                    cg2d_init_res =    3.41050355489721E-01
(PID.TID 0000.0001)                       cg2d_iters =    24
(PID.TID 0000.0001)                         cg2d_res =    6.64894634778392E-14
time,SST,SSS,fu,fv,Q,E-P,i0,i1,a,b =   4.7088E+06 -4.2167E-01  3.4471E+01 -1.8477E-02 -1.2234E-02  2.3254E+02  0.0000E+00     2     3  3.1667E-01  6.8333E-01
time,fu0,fu1,fu =   4.7088E+06 -1.4435E-02 -2.7199E-02 -1.8477E-02  3.1667E-01  6.8333E-01
 cg2d: Sum(rhs),rhsMax =  -2.47926679186605E-13  6.84684496369599E+00
(PID.TID 0000.0001)                    cg2d_init_res =    3.40802699455436E-01
(PID.TID 0000.0001)                       cg2d_iters =    24
(PID.TID 0000.0001)                         cg2d_res =    6.42778876482675E-14
time,SST,SSS,fu,fv,Q,E-P,i0,i1,a,b =   4.7520E+06 -4.1587E-01  3.4474E+01 -1.8689E-02 -1.1950E-02  2.3212E+02  0.0000E+00     2     3  3.3333E-01  6.6667E-01
time,fu0,fu1,fu =   4.7520E+06 -1.4435E-02 -2.7199E-02 -1.8689E-02  3.3333E-01  6.6667E-01
 cg2d: Sum(rhs),rhsMax =   2.68590705232441E-13  6.91737136411204E+00
(PID.TID 0000.0001)                    cg2d_init_res =    3.38750094032464E-01
(PID.TID 0000.0001)                       cg2d_iters =    24
(PID.TID 0000.0001)                         cg2d_res =    6.11523404237501E-14
time,SST,SSS,fu,fv,Q,E-P,i0,i1,a,b =   4.7952E+06 -4.1007E-01  3.4476E+01 -1.8902E-02 -1.1665E-02  2.3170E+02  0.0000E+00     2     3  3.5000E-01  6.5000E-01
time,fu0,fu1,fu =   4.7952E+06 -1.4435E-02 -2.7199E-02 -1.8902E-02  3.5000E-01  6.5000E-01
 cg2d: Sum(rhs),rhsMax =   7.82832132451006E-13  6.98488815477551E+00
(PID.TID 0000.0001)                    cg2d_init_res =    3.34730009073257E-01
(PID.TID 0000.0001)                       cg2d_iters =    24
(PID.TID 0000.0001)                         cg2d_res =    5.75069506957782E-14
time,SST,SSS,fu,fv,Q,E-P,i0,i1,a,b =   4.8384E+06 -4.0427E-01  3.4479E+01 -1.9115E-02 -1.1381E-02  2.3128E+02  0.0000E+00     2     3  3.6667E-01  6.3333E-01
time,fu0,fu1,fu =   4.8384E+06 -1.4435E-02 -2.7199E-02 -1.9115E-02  3.6667E-01  6.3333E-01
 cg2d: Sum(rhs),rhsMax =  -8.14556755379670E-13  7.04590475328957E+00
(PID.TID 0000.0001)                    cg2d_init_res =    3.28825655749691E-01
(PID.TID 0000.0001)                       cg2d_iters =    24
(PID.TID 0000.0001)                         cg2d_res =    5.39216774597362E-14
time,SST,SSS,fu,fv,Q,E-P,i0,i1,a,b =   4.8816E+06 -3.9848E-01  3.4482E+01 -1.9328E-02 -1.1097E-02  2.3087E+02  0.0000E+00     2     3  3.8333E-01  6.1667E-01
time,fu0,fu1,fu =   4.8816E+06 -1.4435E-02 -2.7199E-02 -1.9328E-02  3.8333E-01  6.1667E-01
 cg2d: Sum(rhs),rhsMax =  -4.65030791652055E-13  7.09712839965982E+00
(PID.TID 0000.0001)                    cg2d_init_res =    3.21323067820191E-01
(PID.TID 0000.0001)                       cg2d_iters =    24
(PID.TID 0000.0001)                         cg2d_res =    5.09999959734717E-14
time,SST,SSS,fu,fv,Q,E-P,i0,i1,a,b =   4.8816E+06 -3.9848E-01  3.4482E+01 -1.9328E-02 -1.1097E-02  2.3087E+02  0.0000E+00     2     3  3.8333E-01  6.1667E-01
time,fu0,fu1,fu =   4.8816E+06 -1.4435E-02 -2.7199E-02 -1.9328E-02  3.8333E-01  6.1667E-01
 cg2d: Sum(rhs),rhsMax =   3.08255753747399E-15  1.27652746292816E-07
time,SST,SSS,fu,fv,Q,E-P,i0,i1,a,b =   4.8384E+06 -4.0427E-01  3.4479E+01 -1.9115E-02 -1.1381E-02  2.3128E+02  0.0000E+00     2     3  3.6667E-01  6.3333E-01
time,fu0,fu1,fu =   4.8384E+06 -1.4435E-02 -2.7199E-02 -1.9115E-02  3.6667E-01  6.3333E-01
 cg2d: Sum(rhs),rhsMax =   1.74603843987125E-15  1.40052208032821E-07
time,SST,SSS,fu,fv,Q,E-P,i0,i1,a,b =   4.7952E+06 -4.1007E-01  3.4476E+01 -1.8902E-02 -1.1665E-02  2.3170E+02  0.0000E+00     2     3  3.5000E-01  6.5000E-01
time,fu0,fu1,fu =   4.7952E+06 -1.4435E-02 -2.7199E-02 -1.8902E-02  3.5000E-01  6.5000E-01
 cg2d: Sum(rhs),rhsMax =   1.59664634560895E-15  1.29784780292881E-07
time,SST,SSS,fu,fv,Q,E-P,i0,i1,a,b =   4.7520E+06 -4.1587E-01  3.4474E+01 -1.8689E-02 -1.1950E-02  2.3212E+02  0.0000E+00     2     3  3.3333E-01  6.6667E-01
time,fu0,fu1,fu =   4.7520E+06 -1.4435E-02 -2.7199E-02 -1.8689E-02  3.3333E-01  6.6667E-01
 cg2d: Sum(rhs),rhsMax =  -1.05804542449738E-15  1.01708126958393E-07
time,SST,SSS,fu,fv,Q,E-P,i0,i1,a,b =   4.7088E+06 -4.2167E-01  3.4471E+01 -1.8477E-02 -1.2234E-02  2.3254E+02  0.0000E+00     2     3  3.1667E-01  6.8333E-01
time,fu0,fu1,fu =   4.7088E+06 -1.4435E-02 -2.7199E-02 -1.8477E-02  3.1667E-01  6.8333E-01
 cg2d: Sum(rhs),rhsMax =  -2.07902595777233E-15  6.27571365799595E-08
time,SST,SSS,fu,fv,Q,E-P,i0,i1,a,b =   4.6656E+06 -4.2747E-01  3.4469E+01 -1.8264E-02 -1.2518E-02  2.3296E+02  0.0000E+00     2     3  3.0000E-01  7.0000E-01
time,fu0,fu1,fu =   4.6656E+06 -1.4435E-02 -2.7199E-02 -1.8264E-02  3.0000E-01  7.0000E-01
 cg2d: Sum(rhs),rhsMax =  -8.36731459604736E-15  4.26280418284559E-08
(PID.TID 0000.0001)  MDSREADVECTOR: opening file: tapelev2_1_the_main_loop_gs.it0000.001.001.data
(PID.TID 0000.0001)  MDS_READ_RL_VEC: irec =  00000018   00066240
(PID.TID 0000.0001)  MDSREADVECTOR: opening file: tapelev2_2_the_main_loop_gt.it0000.001.001.data
(PID.TID 0000.0001)  MDS_READ_RL_VEC: irec =  00000018   00066240
(PID.TID 0000.0001)  MDSREADVECTOR: opening file: tapelev2_3_the_main_loop_gsnm1.it0000.001.001.data
(PID.TID 0000.0001)  MDS_READ_RL_VEC: irec =  00000018   00066240
(PID.TID 0000.0001)  MDSREADVECTOR: opening file: tapelev2_4_the_main_loop_gtnm1.it0000.001.001.data
(PID.TID 0000.0001)  MDS_READ_RL_VEC: irec =  00000018   00066240
(PID.TID 0000.0001)  MDSREADVECTOR: opening file: tapelev2_5_the_main_loop_gunm1.it0000.001.001.data
(PID.TID 0000.0001)  MDS_READ_RL_VEC: irec =  00000018   00066240
(PID.TID 0000.0001)  MDSREADVECTOR: opening file: tapelev2_6_the_main_loop_gvnm1.it0000.001.001.data
(PID.TID 0000.0001)  MDS_READ_RL_VEC: irec =  00000018   00066240
(PID.TID 0000.0001)  MDSREADVECTOR: opening file: tapelev2_7_the_main_loop_theta.it0000.001.001.data
(PID.TID 0000.0001)  MDS_READ_RL_VEC: irec =  00000018   00066240
(PID.TID 0000.0001)  MDSREADVECTOR: opening file: tapelev2_8_the_main_loop_salt.it0000.001.001.data
(PID.TID 0000.0001)  MDS_READ_RL_VEC: irec =  00000018   00066240
(PID.TID 0000.0001)  MDSREADVECTOR: opening file: tapelev2_9_the_main_loop_uvel.it0000.001.001.data
(PID.TID 0000.0001)  MDS_READ_RL_VEC: irec =  00000018   00066240
(PID.TID 0000.0001)  MDSREADVECTOR: opening file: tapelev2_10_the_main_loop_vvel.it0000.001.001.data
(PID.TID 0000.0001)  MDS_READ_RL_VEC: irec =  00000018   00066240
(PID.TID 0000.0001)  MDSREADVECTOR: opening file: tapelev2_11_the_main_loop_wvel.it0000.001.001.data
(PID.TID 0000.0001)  MDS_READ_RL_VEC: irec =  00000018   00066240
(PID.TID 0000.0001)  MDSREADVECTOR: opening file: tapelev2_12_the_main_loop_etan.it0000.001.001.data
(PID.TID 0000.0001)  MDS_READ_RL_VEC: irec =  00000018   00004416
(PID.TID 0000.0001)  MDSREADVECTOR: opening file: tapelev2_13_the_main_loop_totphihyd.it0000.001.001.data
(PID.TID 0000.0001)  MDS_READ_RL_VEC: irec =  00000018   00066240
(PID.TID 0000.0001)  MDSREADVECTOR: opening file: tapelev2_15_the_main_loop_surfaceforcingtice.it0000.001.001.data
(PID.TID 0000.0001)  MDS_READ_RL_VEC: irec =  00000018   00004416
(PID.TID 0000.0001)  MDSREADVECTOR: opening file: tapelev2_17_the_main_loop_etah.it0000.001.001.data
(PID.TID 0000.0001)  MDS_READ_RL_VEC: irec =  00000018   00004416
(PID.TID 0000.0001)  MDSREADVECTOR: opening file: tapelev2_18_the_main_loop_detahdt.it0000.001.001.data
(PID.TID 0000.0001)  MDS_READ_RL_VEC: irec =  00000018   00004416
(PID.TID 0000.0001)  MDSREADVECTOR: opening file: tapelev2_19_the_main_loop_pmepr.it0000.001.001.data
(PID.TID 0000.0001)  MDS_READ_RL_VEC: irec =  00000018   00004416
(PID.TID 0000.0001)  MDSREADVECTOR: opening file: tapelev2_20_the_main_loop_taux0.it0000.001.001.data
(PID.TID 0000.0001)  MDS_READ_RL_VEC: irec =  00000018   00004416
(PID.TID 0000.0001)  MDSREADVECTOR: opening file: tapelev2_21_the_main_loop_taux1.it0000.001.001.data
(PID.TID 0000.0001)  MDS_READ_RL_VEC: irec =  00000018   00004416
(PID.TID 0000.0001)  MDSREADVECTOR: opening file: tapelev2_22_the_main_loop_tauy0.it0000.001.001.data
(PID.TID 0000.0001)  MDS_READ_RL_VEC: irec =  00000018   00004416
(PID.TID 0000.0001)  MDSREADVECTOR: opening file: tapelev2_23_the_main_loop_tauy1.it0000.001.001.data
(PID.TID 0000.0001)  MDS_READ_RL_VEC: irec =  00000018   00004416
(PID.TID 0000.0001)  MDSREADVECTOR: opening file: tapelev2_24_the_main_loop_qnet0.it0000.001.001.data
(PID.TID 0000.0001)  MDS_READ_RL_VEC: irec =  00000018   00004416
(PID.TID 0000.0001)  MDSREADVECTOR: opening file: tapelev2_25_the_main_loop_qnet1.it0000.001.001.data
(PID.TID 0000.0001)  MDS_READ_RL_VEC: irec =  00000018   00004416
(PID.TID 0000.0001)  MDSREADVECTOR: opening file: tapelev2_26_the_main_loop_empmr0.it0000.001.001.data
(PID.TID 0000.0001)  MDS_READ_RL_VEC: irec =  00000018   00004416
(PID.TID 0000.0001)  MDSREADVECTOR: opening file: tapelev2_27_the_main_loop_empmr1.it0000.001.001.data
(PID.TID 0000.0001)  MDS_READ_RL_VEC: irec =  00000018   00004416
(PID.TID 0000.0001)  MDSREADVECTOR: opening file: tapelev2_28_the_main_loop_sst0.it0000.001.001.data
(PID.TID 0000.0001)  MDS_READ_RL_VEC: irec =  00000018   00004416
(PID.TID 0000.0001)  MDSREADVECTOR: opening file: tapelev2_29_the_main_loop_sst1.it0000.001.001.data
(PID.TID 0000.0001)  MDS_READ_RL_VEC: irec =  00000018   00004416
(PID.TID 0000.0001)  MDSREADVECTOR: opening file: tapelev2_30_the_main_loop_sss0.it0000.001.001.data
(PID.TID 0000.0001)  MDS_READ_RL_VEC: irec =  00000018   00004416
(PID.TID 0000.0001)  MDSREADVECTOR: opening file: tapelev2_31_the_main_loop_sss1.it0000.001.001.data
(PID.TID 0000.0001)  MDS_READ_RL_VEC: irec =  00000018   00004416
(PID.TID 0000.0001)  MDSREADVECTOR: opening file: tapelev2_32_the_main_loop_qsw0.it0000.001.001.data
(PID.TID 0000.0001)  MDS_READ_RL_VEC: irec =  00000018   00004416
(PID.TID 0000.0001)  MDSREADVECTOR: opening file: tapelev2_33_the_main_loop_qsw1.it0000.001.001.data
(PID.TID 0000.0001)  MDS_READ_RL_VEC: irec =  00000018   00004416
time,SST,SSS,fu,fv,Q,E-P,i0,i1,a,b =   4.4064E+06 -4.6227E-01  3.4453E+01 -1.6988E-02 -1.4224E-02  2.3546E+02  0.0000E+00     2     3  2.0000E-01  8.0000E-01
time,fu0,fu1,fu =   4.4064E+06 -1.4435E-02 -2.7199E-02 -1.6988E-02  2.0000E-01  8.0000E-01
 cg2d: Sum(rhs),rhsMax =  -4.53942439193611E-14  7.17018426194841E+00
(PID.TID 0000.0001)                    cg2d_init_res =    3.11468171013772E-01
(PID.TID 0000.0001)                       cg2d_iters =    24
(PID.TID 0000.0001)                         cg2d_res =    6.21261818206455E-14
time,SST,SSS,fu,fv,Q,E-P,i0,i1,a,b =   4.4496E+06 -4.5647E-01  3.4455E+01 -1.7200E-02 -1.3940E-02  2.3505E+02  0.0000E+00     2     3  2.1667E-01  7.8333E-01
time,fu0,fu1,fu =   4.4496E+06 -1.4435E-02 -2.7199E-02 -1.7200E-02  2.1667E-01  7.8333E-01
 cg2d: Sum(rhs),rhsMax =  -1.91513471747840E-14  7.17315886050668E+00
(PID.TID 0000.0001)                    cg2d_init_res =    3.07999266913410E-01
(PID.TID 0000.0001)                       cg2d_iters =    24
(PID.TID 0000.0001)                         cg2d_res =    5.77459637888134E-14
time,SST,SSS,fu,fv,Q,E-P,i0,i1,a,b =   4.4928E+06 -4.5067E-01  3.4458E+01 -1.7413E-02 -1.3655E-02  2.3463E+02  0.0000E+00     2     3  2.3333E-01  7.6667E-01
time,fu0,fu1,fu =   4.4928E+06 -1.4435E-02 -2.7199E-02 -1.7413E-02  2.3333E-01  7.6667E-01
 cg2d: Sum(rhs),rhsMax =   1.01557651177586E-13  7.13896046358100E+00
(PID.TID 0000.0001)                    cg2d_init_res =    3.09116097953190E-01
(PID.TID 0000.0001)                       cg2d_iters =    24
(PID.TID 0000.0001)                         cg2d_res =    5.33335269944084E-14
time,SST,SSS,fu,fv,Q,E-P,i0,i1,a,b =   4.5360E+06 -4.4487E-01  3.4461E+01 -1.7626E-02 -1.3371E-02  2.3421E+02  0.0000E+00     2     3  2.5000E-01  7.5000E-01
time,fu0,fu1,fu =   4.5360E+06 -1.4435E-02 -2.7199E-02 -1.7626E-02  2.5000E-01  7.5000E-01
 cg2d: Sum(rhs),rhsMax =   2.04447569984723E-13  7.07130417052424E+00
(PID.TID 0000.0001)                    cg2d_init_res =    3.14225874083156E-01
(PID.TID 0000.0001)                       cg2d_iters =    24
(PID.TID 0000.0001)                         cg2d_res =    6.29456953335054E-14
time,SST,SSS,fu,fv,Q,E-P,i0,i1,a,b =   4.5792E+06 -4.3907E-01  3.4463E+01 -1.7838E-02 -1.3087E-02  2.3379E+02  0.0000E+00     2     3  2.6667E-01  7.3333E-01
time,fu0,fu1,fu =   4.5792E+06 -1.4435E-02 -2.7199E-02 -1.7838E-02  2.6667E-01  7.3333E-01
 cg2d: Sum(rhs),rhsMax =   1.47271084216527E-13  6.97474689469139E+00
(PID.TID 0000.0001)                    cg2d_init_res =    3.22463574105968E-01
(PID.TID 0000.0001)                       cg2d_iters =    24
(PID.TID 0000.0001)                         cg2d_res =    6.48014057005891E-14
time,SST,SSS,fu,fv,Q,E-P,i0,i1,a,b =   4.6224E+06 -4.3327E-01  3.4466E+01 -1.8051E-02 -1.2803E-02  2.3337E+02  0.0000E+00     2     3  2.8333E-01  7.1667E-01
time,fu0,fu1,fu =   4.6224E+06 -1.4435E-02 -2.7199E-02 -1.8051E-02  2.8333E-01  7.1667E-01
 cg2d: Sum(rhs),rhsMax =  -4.31293889491258E-13  6.85449550980012E+00
(PID.TID 0000.0001)                    cg2d_init_res =    3.32796292163880E-01
(PID.TID 0000.0001)                       cg2d_iters =    24
(PID.TID 0000.0001)                         cg2d_res =    6.62202451226829E-14
time,SST,SSS,fu,fv,Q,E-P,i0,i1,a,b =   4.6224E+06 -4.3327E-01  3.4466E+01 -1.8051E-02 -1.2803E-02  2.3337E+02  0.0000E+00     2     3  2.8333E-01  7.1667E-01
time,fu0,fu1,fu =   4.6224E+06 -1.4435E-02 -2.7199E-02 -1.8051E-02  2.8333E-01  7.1667E-01
 cg2d: Sum(rhs),rhsMax =   4.90472479931824E-15  3.57628806102644E-08
time,SST,SSS,fu,fv,Q,E-P,i0,i1,a,b =   4.5792E+06 -4.3907E-01  3.4463E+01 -1.7838E-02 -1.3087E-02  2.3379E+02  0.0000E+00     2     3  2.6667E-01  7.3333E-01
time,fu0,fu1,fu =   4.5792E+06 -1.4435E-02 -2.7199E-02 -1.7838E-02  2.6667E-01  7.3333E-01
 cg2d: Sum(rhs),rhsMax =  -1.35961798460385E-14  4.93878601146049E-08
time,SST,SSS,fu,fv,Q,E-P,i0,i1,a,b =   4.5360E+06 -4.4487E-01  3.4461E+01 -1.7626E-02 -1.3371E-02  2.3421E+02  0.0000E+00     2     3  2.5000E-01  7.5000E-01
time,fu0,fu1,fu =   4.5360E+06 -1.4435E-02 -2.7199E-02 -1.7626E-02  2.5000E-01  7.5000E-01
 cg2d: Sum(rhs),rhsMax =  -1.46968009051736E-15  6.86383358642181E-08
time,SST,SSS,fu,fv,Q,E-P,i0,i1,a,b =   4.4928E+06 -4.5067E-01  3.4458E+01 -1.7413E-02 -1.3655E-02  2.3463E+02  0.0000E+00     2     3  2.3333E-01  7.6667E-01
time,fu0,fu1,fu =   4.4928E+06 -1.4435E-02 -2.7199E-02 -1.7413E-02  2.3333E-01  7.6667E-01
 cg2d: Sum(rhs),rhsMax =  -5.75574134252348E-15  7.54698849926399E-08
time,SST,SSS,fu,fv,Q,E-P,i0,i1,a,b =   4.4496E+06 -4.5647E-01  3.4455E+01 -1.7200E-02 -1.3940E-02  2.3505E+02  0.0000E+00     2     3  2.1667E-01  7.8333E-01
time,fu0,fu1,fu =   4.4496E+06 -1.4435E-02 -2.7199E-02 -1.7200E-02  2.1667E-01  7.8333E-01
 cg2d: Sum(rhs),rhsMax =  -1.11474956869528E-15  7.07837227644210E-08
time,SST,SSS,fu,fv,Q,E-P,i0,i1,a,b =   4.4064E+06 -4.6227E-01  3.4453E+01 -1.6988E-02 -1.4224E-02  2.3546E+02  0.0000E+00     2     3  2.0000E-01  8.0000E-01
time,fu0,fu1,fu =   4.4064E+06 -1.4435E-02 -2.7199E-02 -1.6988E-02  2.0000E-01  8.0000E-01
 cg2d: Sum(rhs),rhsMax =  -3.37696450664060E-15  5.69423190908391E-08
(PID.TID 0000.0001)  MDSREADVECTOR: opening file: tapelev2_1_the_main_loop_gs.it0000.001.001.data
(PID.TID 0000.0001)  MDS_READ_RL_VEC: irec =  00000017   00066240
(PID.TID 0000.0001)  MDSREADVECTOR: opening file: tapelev2_2_the_main_loop_gt.it0000.001.001.data
(PID.TID 0000.0001)  MDS_READ_RL_VEC: irec =  00000017   00066240
(PID.TID 0000.0001)  MDSREADVECTOR: opening file: tapelev2_3_the_main_loop_gsnm1.it0000.001.001.data
(PID.TID 0000.0001)  MDS_READ_RL_VEC: irec =  00000017   00066240
(PID.TID 0000.0001)  MDSREADVECTOR: opening file: tapelev2_4_the_main_loop_gtnm1.it0000.001.001.data
(PID.TID 0000.0001)  MDS_READ_RL_VEC: irec =  00000017   00066240
(PID.TID 0000.0001)  MDSREADVECTOR: opening file: tapelev2_5_the_main_loop_gunm1.it0000.001.001.data
(PID.TID 0000.0001)  MDS_READ_RL_VEC: irec =  00000017   00066240
(PID.TID 0000.0001)  MDSREADVECTOR: opening file: tapelev2_6_the_main_loop_gvnm1.it0000.001.001.data
(PID.TID 0000.0001)  MDS_READ_RL_VEC: irec =  00000017   00066240
(PID.TID 0000.0001)  MDSREADVECTOR: opening file: tapelev2_7_the_main_loop_theta.it0000.001.001.data
(PID.TID 0000.0001)  MDS_READ_RL_VEC: irec =  00000017   00066240
(PID.TID 0000.0001)  MDSREADVECTOR: opening file: tapelev2_8_the_main_loop_salt.it0000.001.001.data
(PID.TID 0000.0001)  MDS_READ_RL_VEC: irec =  00000017   00066240
(PID.TID 0000.0001)  MDSREADVECTOR: opening file: tapelev2_9_the_main_loop_uvel.it0000.001.001.data
(PID.TID 0000.0001)  MDS_READ_RL_VEC: irec =  00000017   00066240
(PID.TID 0000.0001)  MDSREADVECTOR: opening file: tapelev2_10_the_main_loop_vvel.it0000.001.001.data
(PID.TID 0000.0001)  MDS_READ_RL_VEC: irec =  00000017   00066240
(PID.TID 0000.0001)  MDSREADVECTOR: opening file: tapelev2_11_the_main_loop_wvel.it0000.001.001.data
(PID.TID 0000.0001)  MDS_READ_RL_VEC: irec =  00000017   00066240
(PID.TID 0000.0001)  MDSREADVECTOR: opening file: tapelev2_12_the_main_loop_etan.it0000.001.001.data
(PID.TID 0000.0001)  MDS_READ_RL_VEC: irec =  00000017   00004416
(PID.TID 0000.0001)  MDSREADVECTOR: opening file: tapelev2_13_the_main_loop_totphihyd.it0000.001.001.data
(PID.TID 0000.0001)  MDS_READ_RL_VEC: irec =  00000017   00066240
(PID.TID 0000.0001)  MDSREADVECTOR: opening file: tapelev2_15_the_main_loop_surfaceforcingtice.it0000.001.001.data
(PID.TID 0000.0001)  MDS_READ_RL_VEC: irec =  00000017   00004416
(PID.TID 0000.0001)  MDSREADVECTOR: opening file: tapelev2_17_the_main_loop_etah.it0000.001.001.data
(PID.TID 0000.0001)  MDS_READ_RL_VEC: irec =  00000017   00004416
(PID.TID 0000.0001)  MDSREADVECTOR: opening file: tapelev2_18_the_main_loop_detahdt.it0000.001.001.data
(PID.TID 0000.0001)  MDS_READ_RL_VEC: irec =  00000017   00004416
(PID.TID 0000.0001)  MDSREADVECTOR: opening file: tapelev2_19_the_main_loop_pmepr.it0000.001.001.data
(PID.TID 0000.0001)  MDS_READ_RL_VEC: irec =  00000017   00004416
(PID.TID 0000.0001)  MDSREADVECTOR: opening file: tapelev2_20_the_main_loop_taux0.it0000.001.001.data
(PID.TID 0000.0001)  MDS_READ_RL_VEC: irec =  00000017   00004416
(PID.TID 0000.0001)  MDSREADVECTOR: opening file: tapelev2_21_the_main_loop_taux1.it0000.001.001.data
(PID.TID 0000.0001)  MDS_READ_RL_VEC: irec =  00000017   00004416
(PID.TID 0000.0001)  MDSREADVECTOR: opening file: tapelev2_22_the_main_loop_tauy0.it0000.001.001.data
(PID.TID 0000.0001)  MDS_READ_RL_VEC: irec =  00000017   00004416
(PID.TID 0000.0001)  MDSREADVECTOR: opening file: tapelev2_23_the_main_loop_tauy1.it0000.001.001.data
(PID.TID 0000.0001)  MDS_READ_RL_VEC: irec =  00000017   00004416
(PID.TID 0000.0001)  MDSREADVECTOR: opening file: tapelev2_24_the_main_loop_qnet0.it0000.001.001.data
(PID.TID 0000.0001)  MDS_READ_RL_VEC: irec =  00000017   00004416
(PID.TID 0000.0001)  MDSREADVECTOR: opening file: tapelev2_25_the_main_loop_qnet1.it0000.001.001.data
(PID.TID 0000.0001)  MDS_READ_RL_VEC: irec =  00000017   00004416
(PID.TID 0000.0001)  MDSREADVECTOR: opening file: tapelev2_26_the_main_loop_empmr0.it0000.001.001.data
(PID.TID 0000.0001)  MDS_READ_RL_VEC: irec =  00000017   00004416
(PID.TID 0000.0001)  MDSREADVECTOR: opening file: tapelev2_27_the_main_loop_empmr1.it0000.001.001.data
(PID.TID 0000.0001)  MDS_READ_RL_VEC: irec =  00000017   00004416
(PID.TID 0000.0001)  MDSREADVECTOR: opening file: tapelev2_28_the_main_loop_sst0.it0000.001.001.data
(PID.TID 0000.0001)  MDS_READ_RL_VEC: irec =  00000017   00004416
(PID.TID 0000.0001)  MDSREADVECTOR: opening file: tapelev2_29_the_main_loop_sst1.it0000.001.001.data
(PID.TID 0000.0001)  MDS_READ_RL_VEC: irec =  00000017   00004416
(PID.TID 0000.0001)  MDSREADVECTOR: opening file: tapelev2_30_the_main_loop_sss0.it0000.001.001.data
(PID.TID 0000.0001)  MDS_READ_RL_VEC: irec =  00000017   00004416
(PID.TID 0000.0001)  MDSREADVECTOR: opening file: tapelev2_31_the_main_loop_sss1.it0000.001.001.data
(PID.TID 0000.0001)  MDS_READ_RL_VEC: irec =  00000017   00004416
(PID.TID 0000.0001)  MDSREADVECTOR: opening file: tapelev2_32_the_main_loop_qsw0.it0000.001.001.data
(PID.TID 0000.0001)  MDS_READ_RL_VEC: irec =  00000017   00004416
(PID.TID 0000.0001)  MDSREADVECTOR: opening file: tapelev2_33_the_main_loop_qsw1.it0000.001.001.data
(PID.TID 0000.0001)  MDS_READ_RL_VEC: irec =  00000017   00004416
time,SST,SSS,fu,fv,Q,E-P,i0,i1,a,b =   4.1472E+06 -4.9706E-01  3.4437E+01 -1.5711E-02 -1.5930E-02  2.3797E+02  0.0000E+00     2     3  1.0000E-01  9.0000E-01
time,fu0,fu1,fu =   4.1472E+06 -1.4435E-02 -2.7199E-02 -1.5711E-02  1.0000E-01  9.0000E-01
 cg2d: Sum(rhs),rhsMax =  -1.88543625156967E-13  6.66306743647577E+00
(PID.TID 0000.0001)                    cg2d_init_res =    4.02429529498490E-01
(PID.TID 0000.0001)                       cg2d_iters =    24
(PID.TID 0000.0001)                         cg2d_res =    7.13283413442918E-14
time,SST,SSS,fu,fv,Q,E-P,i0,i1,a,b =   4.1904E+06 -4.9126E-01  3.4440E+01 -1.5924E-02 -1.5646E-02  2.3755E+02  0.0000E+00     2     3  1.1667E-01  8.8333E-01
time,fu0,fu1,fu =   4.1904E+06 -1.4435E-02 -2.7199E-02 -1.5924E-02  1.1667E-01  8.8333E-01
 cg2d: Sum(rhs),rhsMax =  -1.81230030982249E-13  6.62464365836824E+00
(PID.TID 0000.0001)                    cg2d_init_res =    3.92361384185919E-01
(PID.TID 0000.0001)                       cg2d_iters =    24
(PID.TID 0000.0001)                         cg2d_res =    7.06016482795647E-14
time,SST,SSS,fu,fv,Q,E-P,i0,i1,a,b =   4.2336E+06 -4.8546E-01  3.4442E+01 -1.6137E-02 -1.5361E-02  2.3714E+02  0.0000E+00     2     3  1.3333E-01  8.6667E-01
time,fu0,fu1,fu =   4.2336E+06 -1.4435E-02 -2.7199E-02 -1.6137E-02  1.3333E-01  8.6667E-01
 cg2d: Sum(rhs),rhsMax =  -8.32903190861600E-13  6.75051763676786E+00
(PID.TID 0000.0001)                    cg2d_init_res =    3.72014794646072E-01
(PID.TID 0000.0001)                       cg2d_iters =    24
(PID.TID 0000.0001)                         cg2d_res =    6.81351042160235E-14
time,SST,SSS,fu,fv,Q,E-P,i0,i1,a,b =   4.2768E+06 -4.7966E-01  3.4445E+01 -1.6349E-02 -1.5077E-02  2.3672E+02  0.0000E+00     2     3  1.5000E-01  8.5000E-01
time,fu0,fu1,fu =   4.2768E+06 -1.4435E-02 -2.7199E-02 -1.6349E-02  1.5000E-01  8.5000E-01
 cg2d: Sum(rhs),rhsMax =   1.35252919974960E-13  6.91710455346105E+00
(PID.TID 0000.0001)                    cg2d_init_res =    3.50442406096098E-01
(PID.TID 0000.0001)                       cg2d_iters =    24
(PID.TID 0000.0001)                         cg2d_res =    6.56674255455777E-14
time,SST,SSS,fu,fv,Q,E-P,i0,i1,a,b =   4.3200E+06 -4.7386E-01  3.4447E+01 -1.6562E-02 -1.4793E-02  2.3630E+02  0.0000E+00     2     3  1.6667E-01  8.3333E-01
time,fu0,fu1,fu =   4.3200E+06 -1.4435E-02 -2.7199E-02 -1.6562E-02  1.6667E-01  8.3333E-01
 cg2d: Sum(rhs),rhsMax =   5.30631094619594E-13  7.04306579128819E+00
(PID.TID 0000.0001)                    cg2d_init_res =    3.32878869927694E-01
(PID.TID 0000.0001)                       cg2d_iters =    24
(PID.TID 0000.0001)                         cg2d_res =    6.40804451917818E-14
time,SST,SSS,fu,fv,Q,E-P,i0,i1,a,b =   4.3632E+06 -4.6807E-01  3.4450E+01 -1.6775E-02 -1.4508E-02  2.3588E+02  0.0000E+00     2     3  1.8333E-01  8.1667E-01
time,fu0,fu1,fu =   4.3632E+06 -1.4435E-02 -2.7199E-02 -1.6775E-02  1.8333E-01  8.1667E-01
 cg2d: Sum(rhs),rhsMax =   7.10681513638178E-14  7.12733430131964E+00
(PID.TID 0000.0001)                    cg2d_init_res =    3.19783149345170E-01
(PID.TID 0000.0001)                       cg2d_iters =    24
(PID.TID 0000.0001)                         cg2d_res =    6.30925753302066E-14
time,SST,SSS,fu,fv,Q,E-P,i0,i1,a,b =   4.3632E+06 -4.6807E-01  3.4450E+01 -1.6775E-02 -1.4508E-02  2.3588E+02  0.0000E+00     2     3  1.8333E-01  8.1667E-01
time,fu0,fu1,fu =   4.3632E+06 -1.4435E-02 -2.7199E-02 -1.6775E-02  1.8333E-01  8.1667E-01
 cg2d: Sum(rhs),rhsMax =  -1.62026425262751E-14  3.72408175801476E-08
time,SST,SSS,fu,fv,Q,E-P,i0,i1,a,b =   4.3200E+06 -4.7386E-01  3.4447E+01 -1.6562E-02 -1.4793E-02  2.3630E+02  0.0000E+00     2     3  1.6667E-01  8.3333E-01
time,fu0,fu1,fu =   4.3200E+06 -1.4435E-02 -2.7199E-02 -1.6562E-02  1.6667E-01  8.3333E-01
 cg2d: Sum(rhs),rhsMax =  -7.08797170262399E-15  2.74541876220274E-08
time,SST,SSS,fu,fv,Q,E-P,i0,i1,a,b =   4.2768E+06 -4.7966E-01  3.4445E+01 -1.6349E-02 -1.5077E-02  2.3672E+02  0.0000E+00     2     3  1.5000E-01  8.5000E-01
time,fu0,fu1,fu =   4.2768E+06 -1.4435E-02 -2.7199E-02 -1.6349E-02  1.5000E-01  8.5000E-01
 cg2d: Sum(rhs),rhsMax =  -9.31091141687101E-15  2.99973463001701E-08
time,SST,SSS,fu,fv,Q,E-P,i0,i1,a,b =   4.2336E+06 -4.8546E-01  3.4442E+01 -1.6137E-02 -1.5361E-02  2.3714E+02  0.0000E+00     2     3  1.3333E-01  8.6667E-01
time,fu0,fu1,fu =   4.2336E+06 -1.4435E-02 -2.7199E-02 -1.6137E-02  1.3333E-01  8.6667E-01
 cg2d: Sum(rhs),rhsMax =  -2.17102811422842E-14  3.15124781400140E-08
time,SST,SSS,fu,fv,Q,E-P,i0,i1,a,b =   4.1904E+06 -4.9126E-01  3.4440E+01 -1.5924E-02 -1.5646E-02  2.3755E+02  0.0000E+00     2     3  1.1667E-01  8.8333E-01
time,fu0,fu1,fu =   4.1904E+06 -1.4435E-02 -2.7199E-02 -1.5924E-02  1.1667E-01  8.8333E-01
 cg2d: Sum(rhs),rhsMax =  -2.05521363816352E-15  3.33932518050132E-08
time,SST,SSS,fu,fv,Q,E-P,i0,i1,a,b =   4.1472E+06 -4.9706E-01  3.4437E+01 -1.5711E-02 -1.5930E-02  2.3797E+02  0.0000E+00     2     3  1.0000E-01  9.0000E-01
time,fu0,fu1,fu =   4.1472E+06 -1.4435E-02 -2.7199E-02 -1.5711E-02  1.0000E-01  9.0000E-01
 cg2d: Sum(rhs),rhsMax =  -7.57163429176977E-15  3.76733381286241E-08
(PID.TID 0000.0001)  MDSREADVECTOR: opening file: tapelev2_1_the_main_loop_gs.it0000.001.001.data
(PID.TID 0000.0001)  MDS_READ_RL_VEC: irec =  00000016   00066240
(PID.TID 0000.0001)  MDSREADVECTOR: opening file: tapelev2_2_the_main_loop_gt.it0000.001.001.data
(PID.TID 0000.0001)  MDS_READ_RL_VEC: irec =  00000016   00066240
(PID.TID 0000.0001)  MDSREADVECTOR: opening file: tapelev2_3_the_main_loop_gsnm1.it0000.001.001.data
(PID.TID 0000.0001)  MDS_READ_RL_VEC: irec =  00000016   00066240
(PID.TID 0000.0001)  MDSREADVECTOR: opening file: tapelev2_4_the_main_loop_gtnm1.it0000.001.001.data
(PID.TID 0000.0001)  MDS_READ_RL_VEC: irec =  00000016   00066240
(PID.TID 0000.0001)  MDSREADVECTOR: opening file: tapelev2_5_the_main_loop_gunm1.it0000.001.001.data
(PID.TID 0000.0001)  MDS_READ_RL_VEC: irec =  00000016   00066240
(PID.TID 0000.0001)  MDSREADVECTOR: opening file: tapelev2_6_the_main_loop_gvnm1.it0000.001.001.data
(PID.TID 0000.0001)  MDS_READ_RL_VEC: irec =  00000016   00066240
(PID.TID 0000.0001)  MDSREADVECTOR: opening file: tapelev2_7_the_main_loop_theta.it0000.001.001.data
(PID.TID 0000.0001)  MDS_READ_RL_VEC: irec =  00000016   00066240
(PID.TID 0000.0001)  MDSREADVECTOR: opening file: tapelev2_8_the_main_loop_salt.it0000.001.001.data
(PID.TID 0000.0001)  MDS_READ_RL_VEC: irec =  00000016   00066240
(PID.TID 0000.0001)  MDSREADVECTOR: opening file: tapelev2_9_the_main_loop_uvel.it0000.001.001.data
(PID.TID 0000.0001)  MDS_READ_RL_VEC: irec =  00000016   00066240
(PID.TID 0000.0001)  MDSREADVECTOR: opening file: tapelev2_10_the_main_loop_vvel.it0000.001.001.data
(PID.TID 0000.0001)  MDS_READ_RL_VEC: irec =  00000016   00066240
(PID.TID 0000.0001)  MDSREADVECTOR: opening file: tapelev2_11_the_main_loop_wvel.it0000.001.001.data
(PID.TID 0000.0001)  MDS_READ_RL_VEC: irec =  00000016   00066240
(PID.TID 0000.0001)  MDSREADVECTOR: opening file: tapelev2_12_the_main_loop_etan.it0000.001.001.data
(PID.TID 0000.0001)  MDS_READ_RL_VEC: irec =  00000016   00004416
(PID.TID 0000.0001)  MDSREADVECTOR: opening file: tapelev2_13_the_main_loop_totphihyd.it0000.001.001.data
(PID.TID 0000.0001)  MDS_READ_RL_VEC: irec =  00000016   00066240
(PID.TID 0000.0001)  MDSREADVECTOR: opening file: tapelev2_15_the_main_loop_surfaceforcingtice.it0000.001.001.data
(PID.TID 0000.0001)  MDS_READ_RL_VEC: irec =  00000016   00004416
(PID.TID 0000.0001)  MDSREADVECTOR: opening file: tapelev2_17_the_main_loop_etah.it0000.001.001.data
(PID.TID 0000.0001)  MDS_READ_RL_VEC: irec =  00000016   00004416
(PID.TID 0000.0001)  MDSREADVECTOR: opening file: tapelev2_18_the_main_loop_detahdt.it0000.001.001.data
(PID.TID 0000.0001)  MDS_READ_RL_VEC: irec =  00000016   00004416
(PID.TID 0000.0001)  MDSREADVECTOR: opening file: tapelev2_19_the_main_loop_pmepr.it0000.001.001.data
(PID.TID 0000.0001)  MDS_READ_RL_VEC: irec =  00000016   00004416
(PID.TID 0000.0001)  MDSREADVECTOR: opening file: tapelev2_20_the_main_loop_taux0.it0000.001.001.data
(PID.TID 0000.0001)  MDS_READ_RL_VEC: irec =  00000016   00004416
(PID.TID 0000.0001)  MDSREADVECTOR: opening file: tapelev2_21_the_main_loop_taux1.it0000.001.001.data
(PID.TID 0000.0001)  MDS_READ_RL_VEC: irec =  00000016   00004416
(PID.TID 0000.0001)  MDSREADVECTOR: opening file: tapelev2_22_the_main_loop_tauy0.it0000.001.001.data
(PID.TID 0000.0001)  MDS_READ_RL_VEC: irec =  00000016   00004416
(PID.TID 0000.0001)  MDSREADVECTOR: opening file: tapelev2_23_the_main_loop_tauy1.it0000.001.001.data
(PID.TID 0000.0001)  MDS_READ_RL_VEC: irec =  00000016   00004416
(PID.TID 0000.0001)  MDSREADVECTOR: opening file: tapelev2_24_the_main_loop_qnet0.it0000.001.001.data
(PID.TID 0000.0001)  MDS_READ_RL_VEC: irec =  00000016   00004416
(PID.TID 0000.0001)  MDSREADVECTOR: opening file: tapelev2_25_the_main_loop_qnet1.it0000.001.001.data
(PID.TID 0000.0001)  MDS_READ_RL_VEC: irec =  00000016   00004416
(PID.TID 0000.0001)  MDSREADVECTOR: opening file: tapelev2_26_the_main_loop_empmr0.it0000.001.001.data
(PID.TID 0000.0001)  MDS_READ_RL_VEC: irec =  00000016   00004416
(PID.TID 0000.0001)  MDSREADVECTOR: opening file: tapelev2_27_the_main_loop_empmr1.it0000.001.001.data
(PID.TID 0000.0001)  MDS_READ_RL_VEC: irec =  00000016   00004416
(PID.TID 0000.0001)  MDSREADVECTOR: opening file: tapelev2_28_the_main_loop_sst0.it0000.001.001.data
(PID.TID 0000.0001)  MDS_READ_RL_VEC: irec =  00000016   00004416
(PID.TID 0000.0001)  MDSREADVECTOR: opening file: tapelev2_29_the_main_loop_sst1.it0000.001.001.data
(PID.TID 0000.0001)  MDS_READ_RL_VEC: irec =  00000016   00004416
(PID.TID 0000.0001)  MDSREADVECTOR: opening file: tapelev2_30_the_main_loop_sss0.it0000.001.001.data
(PID.TID 0000.0001)  MDS_READ_RL_VEC: irec =  00000016   00004416
(PID.TID 0000.0001)  MDSREADVECTOR: opening file: tapelev2_31_the_main_loop_sss1.it0000.001.001.data
(PID.TID 0000.0001)  MDS_READ_RL_VEC: irec =  00000016   00004416
(PID.TID 0000.0001)  MDSREADVECTOR: opening file: tapelev2_32_the_main_loop_qsw0.it0000.001.001.data
(PID.TID 0000.0001)  MDS_READ_RL_VEC: irec =  00000016   00004416
(PID.TID 0000.0001)  MDSREADVECTOR: opening file: tapelev2_33_the_main_loop_qsw1.it0000.001.001.data
(PID.TID 0000.0001)  MDS_READ_RL_VEC: irec =  00000016   00004416
 S/R EXTERNAL_FIELDS_LOAD: Reading new data  3888000. 90
(PID.TID 0000.0001)  MDSREADFIELD: opening global file: trenberth_taux.bin
(PID.TID 0000.0001)  MDSREADFIELD: opening global file: trenberth_taux.bin
(PID.TID 0000.0001)  MDSREADFIELD: opening global file: trenberth_tauy.bin
(PID.TID 0000.0001)  MDSREADFIELD: opening global file: trenberth_tauy.bin
(PID.TID 0000.0001)  MDSREADFIELD: opening global file: ncep_qnet.bin
(PID.TID 0000.0001)  MDSREADFIELD: opening global file: ncep_qnet.bin
(PID.TID 0000.0001)  MDSREADFIELD: opening global file: lev_sst.bin
(PID.TID 0000.0001)  MDSREADFIELD: opening global file: lev_sst.bin
(PID.TID 0000.0001)  MDSREADFIELD: opening global file: lev_sss.bin
(PID.TID 0000.0001)  MDSREADFIELD: opening global file: lev_sss.bin
time,SST,SSS,fu,fv,Q,E-P,i0,i1,a,b =   3.8880E+06 -5.3186E-01  3.4421E+01 -1.4435E-02 -1.7636E-02  2.4048E+02  0.0000E+00     2     3  0.0000E+00  1.0000E+00
time,fu0,fu1,fu =   3.8880E+06 -1.4435E-02 -2.7199E-02 -1.4435E-02  0.0000E+00  1.0000E+00
 cg2d: Sum(rhs),rhsMax =  -6.16035000788884E-14  8.25636774540552E+00
(PID.TID 0000.0001)                    cg2d_init_res =    3.45114615023290E-01
(PID.TID 0000.0001)                       cg2d_iters =    24
(PID.TID 0000.0001)                         cg2d_res =    5.11145018652949E-14
time,SST,SSS,fu,fv,Q,E-P,i0,i1,a,b =   3.9312E+06 -5.2606E-01  3.4424E+01 -1.4647E-02 -1.7351E-02  2.4006E+02  0.0000E+00     2     3  1.6667E-02  9.8333E-01
time,fu0,fu1,fu =   3.9312E+06 -1.4435E-02 -2.7199E-02 -1.4647E-02  1.6667E-02  9.8333E-01
 cg2d: Sum(rhs),rhsMax =  -4.98212582300539E-15  7.68566216513986E+00
(PID.TID 0000.0001)                    cg2d_init_res =    3.72769254605740E-01
(PID.TID 0000.0001)                       cg2d_iters =    24
(PID.TID 0000.0001)                         cg2d_res =    5.81322619791758E-14
time,SST,SSS,fu,fv,Q,E-P,i0,i1,a,b =   3.9744E+06 -5.2026E-01  3.4426E+01 -1.4860E-02 -1.7067E-02  2.3964E+02  0.0000E+00     2     3  3.3333E-02  9.6667E-01
time,fu0,fu1,fu =   3.9744E+06 -1.4435E-02 -2.7199E-02 -1.4860E-02  3.3333E-02  9.6667E-01
 cg2d: Sum(rhs),rhsMax =   4.67972882667311E-13  7.08797888964291E+00
(PID.TID 0000.0001)                    cg2d_init_res =    4.04130333517225E-01
(PID.TID 0000.0001)                       cg2d_iters =    24
(PID.TID 0000.0001)                         cg2d_res =    6.51791035986727E-14
time,SST,SSS,fu,fv,Q,E-P,i0,i1,a,b =   4.0176E+06 -5.1446E-01  3.4429E+01 -1.5073E-02 -1.6783E-02  2.3923E+02  0.0000E+00     2     3  5.0000E-02  9.5000E-01
time,fu0,fu1,fu =   4.0176E+06 -1.4435E-02 -2.7199E-02 -1.5073E-02  5.0000E-02  9.5000E-01
 cg2d: Sum(rhs),rhsMax =  -3.02410874120085E-13  6.77027622497841E+00
(PID.TID 0000.0001)                    cg2d_init_res =    4.20314746915193E-01
(PID.TID 0000.0001)                       cg2d_iters =    24
(PID.TID 0000.0001)                         cg2d_res =    6.93433080687315E-14
time,SST,SSS,fu,fv,Q,E-P,i0,i1,a,b =   4.0608E+06 -5.0866E-01  3.4432E+01 -1.5286E-02 -1.6498E-02  2.3881E+02  0.0000E+00     2     3  6.6667E-02  9.3333E-01
time,fu0,fu1,fu =   4.0608E+06 -1.4435E-02 -2.7199E-02 -1.5286E-02  6.6667E-02  9.3333E-01
 cg2d: Sum(rhs),rhsMax =  -2.73531197692023E-13  6.73808714268623E+00
(PID.TID 0000.0001)                    cg2d_init_res =    4.16725834852379E-01
(PID.TID 0000.0001)                       cg2d_iters =    24
(PID.TID 0000.0001)                         cg2d_res =    7.13640763788426E-14
time,SST,SSS,fu,fv,Q,E-P,i0,i1,a,b =   4.1040E+06 -5.0286E-01  3.4434E+01 -1.5498E-02 -1.6214E-02  2.3839E+02  0.0000E+00     2     3  8.3333E-02  9.1667E-01
time,fu0,fu1,fu =   4.1040E+06 -1.4435E-02 -2.7199E-02 -1.5498E-02  8.3333E-02  9.1667E-01
 cg2d: Sum(rhs),rhsMax =   5.77302095017274E-13  6.70168363280562E+00
(PID.TID 0000.0001)                    cg2d_init_res =    4.10693235214928E-01
(PID.TID 0000.0001)                       cg2d_iters =    24
(PID.TID 0000.0001)                         cg2d_res =    7.16653588881019E-14
time,SST,SSS,fu,fv,Q,E-P,i0,i1,a,b =   4.1040E+06 -5.0286E-01  3.4434E+01 -1.5498E-02 -1.6214E-02  2.3839E+02  0.0000E+00     2     3  8.3333E-02  9.1667E-01
time,fu0,fu1,fu =   4.1040E+06 -1.4435E-02 -2.7199E-02 -1.5498E-02  8.3333E-02  9.1667E-01
 cg2d: Sum(rhs),rhsMax =  -5.84601811404184E-16  3.62314399355235E-08
time,SST,SSS,fu,fv,Q,E-P,i0,i1,a,b =   4.0608E+06 -5.0866E-01  3.4432E+01 -1.5286E-02 -1.6498E-02  2.3881E+02  0.0000E+00     2     3  6.6667E-02  9.3333E-01
time,fu0,fu1,fu =   4.0608E+06 -1.4435E-02 -2.7199E-02 -1.5286E-02  6.6667E-02  9.3333E-01
 cg2d: Sum(rhs),rhsMax =   2.68014777038417E-16  2.99748956891445E-08
time,SST,SSS,fu,fv,Q,E-P,i0,i1,a,b =   4.0176E+06 -5.1446E-01  3.4429E+01 -1.5073E-02 -1.6783E-02  2.3923E+02  0.0000E+00     2     3  5.0000E-02  9.5000E-01
time,fu0,fu1,fu =   4.0176E+06 -1.4435E-02 -2.7199E-02 -1.5073E-02  5.0000E-02  9.5000E-01
 cg2d: Sum(rhs),rhsMax =  -5.07146408201820E-15  2.62609147658529E-08
time,SST,SSS,fu,fv,Q,E-P,i0,i1,a,b =   3.9744E+06 -5.2026E-01  3.4426E+01 -1.4860E-02 -1.7067E-02  2.3964E+02  0.0000E+00     2     3  3.3333E-02  9.6667E-01
time,fu0,fu1,fu =   3.9744E+06 -1.4435E-02 -2.7199E-02 -1.4860E-02  3.3333E-02  9.6667E-01
 cg2d: Sum(rhs),rhsMax =  -1.11299858218672E-14  2.55989017050911E-08
time,SST,SSS,fu,fv,Q,E-P,i0,i1,a,b =   3.9312E+06 -5.2606E-01  3.4424E+01 -1.4647E-02 -1.7351E-02  2.4006E+02  0.0000E+00     2     3  1.6667E-02  9.8333E-01
time,fu0,fu1,fu =   3.9312E+06 -1.4435E-02 -2.7199E-02 -1.4647E-02  1.6667E-02  9.8333E-01
 cg2d: Sum(rhs),rhsMax =  -1.66342634111416E-14  2.43009902270801E-08
 S/R EXTERNAL_FIELDS_LOAD: Reading new data  3888000. 90
(PID.TID 0000.0001)  MDSREADFIELD: opening global file: trenberth_taux.bin
(PID.TID 0000.0001)  MDSREADFIELD: opening global file: trenberth_taux.bin
(PID.TID 0000.0001)  MDSREADFIELD: opening global file: trenberth_tauy.bin
(PID.TID 0000.0001)  MDSREADFIELD: opening global file: trenberth_tauy.bin
(PID.TID 0000.0001)  MDSREADFIELD: opening global file: ncep_qnet.bin
(PID.TID 0000.0001)  MDSREADFIELD: opening global file: ncep_qnet.bin
(PID.TID 0000.0001)  MDSREADFIELD: opening global file: lev_sst.bin
(PID.TID 0000.0001)  MDSREADFIELD: opening global file: lev_sst.bin
(PID.TID 0000.0001)  MDSREADFIELD: opening global file: lev_sss.bin
(PID.TID 0000.0001)  MDSREADFIELD: opening global file: lev_sss.bin
time,SST,SSS,fu,fv,Q,E-P,i0,i1,a,b =   3.8880E+06 -5.3186E-01  3.4421E+01 -1.4435E-02 -1.7636E-02  2.4048E+02  0.0000E+00     2     3  0.0000E+00  1.0000E+00
time,fu0,fu1,fu =   3.8880E+06 -1.4435E-02 -2.7199E-02 -1.4435E-02  0.0000E+00  1.0000E+00
 cg2d: Sum(rhs),rhsMax =   4.43395320459672E-15  2.27836121144882E-08
(PID.TID 0000.0001)  MDSREADFIELD: opening global file: trenberth_taux.bin
(PID.TID 0000.0001)  MDSREADFIELD: opening global file: trenberth_taux.bin
(PID.TID 0000.0001)  MDSREADFIELD: opening global file: trenberth_tauy.bin
(PID.TID 0000.0001)  MDSREADFIELD: opening global file: trenberth_tauy.bin
(PID.TID 0000.0001)  MDSREADFIELD: opening global file: ncep_qnet.bin
(PID.TID 0000.0001)  MDSREADFIELD: opening global file: ncep_qnet.bin
(PID.TID 0000.0001)  MDSREADFIELD: opening global file: lev_sst.bin
(PID.TID 0000.0001)  MDSREADFIELD: opening global file: lev_sst.bin
(PID.TID 0000.0001)  MDSREADFIELD: opening global file: lev_sss.bin
(PID.TID 0000.0001)  MDSREADFIELD: opening global file: lev_sss.bin
(PID.TID 0000.0001)  MDSREADVECTOR: opening file: tapelev2_1_the_main_loop_gs.it0000.001.001.data
(PID.TID 0000.0001)  MDS_READ_RL_VEC: irec =  00000015   00066240
(PID.TID 0000.0001)  MDSREADVECTOR: opening file: tapelev2_2_the_main_loop_gt.it0000.001.001.data
(PID.TID 0000.0001)  MDS_READ_RL_VEC: irec =  00000015   00066240
(PID.TID 0000.0001)  MDSREADVECTOR: opening file: tapelev2_3_the_main_loop_gsnm1.it0000.001.001.data
(PID.TID 0000.0001)  MDS_READ_RL_VEC: irec =  00000015   00066240
(PID.TID 0000.0001)  MDSREADVECTOR: opening file: tapelev2_4_the_main_loop_gtnm1.it0000.001.001.data
(PID.TID 0000.0001)  MDS_READ_RL_VEC: irec =  00000015   00066240
(PID.TID 0000.0001)  MDSREADVECTOR: opening file: tapelev2_5_the_main_loop_gunm1.it0000.001.001.data
(PID.TID 0000.0001)  MDS_READ_RL_VEC: irec =  00000015   00066240
(PID.TID 0000.0001)  MDSREADVECTOR: opening file: tapelev2_6_the_main_loop_gvnm1.it0000.001.001.data
(PID.TID 0000.0001)  MDS_READ_RL_VEC: irec =  00000015   00066240
(PID.TID 0000.0001)  MDSREADVECTOR: opening file: tapelev2_7_the_main_loop_theta.it0000.001.001.data
(PID.TID 0000.0001)  MDS_READ_RL_VEC: irec =  00000015   00066240
(PID.TID 0000.0001)  MDSREADVECTOR: opening file: tapelev2_8_the_main_loop_salt.it0000.001.001.data
(PID.TID 0000.0001)  MDS_READ_RL_VEC: irec =  00000015   00066240
(PID.TID 0000.0001)  MDSREADVECTOR: opening file: tapelev2_9_the_main_loop_uvel.it0000.001.001.data
(PID.TID 0000.0001)  MDS_READ_RL_VEC: irec =  00000015   00066240
(PID.TID 0000.0001)  MDSREADVECTOR: opening file: tapelev2_10_the_main_loop_vvel.it0000.001.001.data
(PID.TID 0000.0001)  MDS_READ_RL_VEC: irec =  00000015   00066240
(PID.TID 0000.0001)  MDSREADVECTOR: opening file: tapelev2_11_the_main_loop_wvel.it0000.001.001.data
(PID.TID 0000.0001)  MDS_READ_RL_VEC: irec =  00000015   00066240
(PID.TID 0000.0001)  MDSREADVECTOR: opening file: tapelev2_12_the_main_loop_etan.it0000.001.001.data
(PID.TID 0000.0001)  MDS_READ_RL_VEC: irec =  00000015   00004416
(PID.TID 0000.0001)  MDSREADVECTOR: opening file: tapelev2_13_the_main_loop_totphihyd.it0000.001.001.data
(PID.TID 0000.0001)  MDS_READ_RL_VEC: irec =  00000015   00066240
(PID.TID 0000.0001)  MDSREADVECTOR: opening file: tapelev2_15_the_main_loop_surfaceforcingtice.it0000.001.001.data
(PID.TID 0000.0001)  MDS_READ_RL_VEC: irec =  00000015   00004416
(PID.TID 0000.0001)  MDSREADVECTOR: opening file: tapelev2_17_the_main_loop_etah.it0000.001.001.data
(PID.TID 0000.0001)  MDS_READ_RL_VEC: irec =  00000015   00004416
(PID.TID 0000.0001)  MDSREADVECTOR: opening file: tapelev2_18_the_main_loop_detahdt.it0000.001.001.data
(PID.TID 0000.0001)  MDS_READ_RL_VEC: irec =  00000015   00004416
(PID.TID 0000.0001)  MDSREADVECTOR: opening file: tapelev2_19_the_main_loop_pmepr.it0000.001.001.data
(PID.TID 0000.0001)  MDS_READ_RL_VEC: irec =  00000015   00004416
(PID.TID 0000.0001)  MDSREADVECTOR: opening file: tapelev2_20_the_main_loop_taux0.it0000.001.001.data
(PID.TID 0000.0001)  MDS_READ_RL_VEC: irec =  00000015   00004416
(PID.TID 0000.0001)  MDSREADVECTOR: opening file: tapelev2_21_the_main_loop_taux1.it0000.001.001.data
(PID.TID 0000.0001)  MDS_READ_RL_VEC: irec =  00000015   00004416
(PID.TID 0000.0001)  MDSREADVECTOR: opening file: tapelev2_22_the_main_loop_tauy0.it0000.001.001.data
(PID.TID 0000.0001)  MDS_READ_RL_VEC: irec =  00000015   00004416
(PID.TID 0000.0001)  MDSREADVECTOR: opening file: tapelev2_23_the_main_loop_tauy1.it0000.001.001.data
(PID.TID 0000.0001)  MDS_READ_RL_VEC: irec =  00000015   00004416
(PID.TID 0000.0001)  MDSREADVECTOR: opening file: tapelev2_24_the_main_loop_qnet0.it0000.001.001.data
(PID.TID 0000.0001)  MDS_READ_RL_VEC: irec =  00000015   00004416
(PID.TID 0000.0001)  MDSREADVECTOR: opening file: tapelev2_25_the_main_loop_qnet1.it0000.001.001.data
(PID.TID 0000.0001)  MDS_READ_RL_VEC: irec =  00000015   00004416
(PID.TID 0000.0001)  MDSREADVECTOR: opening file: tapelev2_26_the_main_loop_empmr0.it0000.001.001.data
(PID.TID 0000.0001)  MDS_READ_RL_VEC: irec =  00000015   00004416
(PID.TID 0000.0001)  MDSREADVECTOR: opening file: tapelev2_27_the_main_loop_empmr1.it0000.001.001.data
(PID.TID 0000.0001)  MDS_READ_RL_VEC: irec =  00000015   00004416
(PID.TID 0000.0001)  MDSREADVECTOR: opening file: tapelev2_28_the_main_loop_sst0.it0000.001.001.data
(PID.TID 0000.0001)  MDS_READ_RL_VEC: irec =  00000015   00004416
(PID.TID 0000.0001)  MDSREADVECTOR: opening file: tapelev2_29_the_main_loop_sst1.it0000.001.001.data
(PID.TID 0000.0001)  MDS_READ_RL_VEC: irec =  00000015   00004416
(PID.TID 0000.0001)  MDSREADVECTOR: opening file: tapelev2_30_the_main_loop_sss0.it0000.001.001.data
(PID.TID 0000.0001)  MDS_READ_RL_VEC: irec =  00000015   00004416
(PID.TID 0000.0001)  MDSREADVECTOR: opening file: tapelev2_31_the_main_loop_sss1.it0000.001.001.data
(PID.TID 0000.0001)  MDS_READ_RL_VEC: irec =  00000015   00004416
(PID.TID 0000.0001)  MDSREADVECTOR: opening file: tapelev2_32_the_main_loop_qsw0.it0000.001.001.data
(PID.TID 0000.0001)  MDS_READ_RL_VEC: irec =  00000015   00004416
(PID.TID 0000.0001)  MDSREADVECTOR: opening file: tapelev2_33_the_main_loop_qsw1.it0000.001.001.data
(PID.TID 0000.0001)  MDS_READ_RL_VEC: irec =  00000015   00004416
time,SST,SSS,fu,fv,Q,E-P,i0,i1,a,b =   3.6288E+06 -3.8283E-01  3.4450E+01 -1.6555E-02 -2.1598E-02  2.4301E+02  0.0000E+00     1     2  9.0000E-01  1.0000E-01
time,fu0,fu1,fu =   3.6288E+06 -3.5633E-02 -1.4435E-02 -1.6555E-02  9.0000E-01  1.0000E-01
 cg2d: Sum(rhs),rhsMax =   9.57567358739198E-16  1.04523935198126E+01
(PID.TID 0000.0001)                    cg2d_init_res =    2.63157718476466E-01
(PID.TID 0000.0001)                       cg2d_iters =    24
(PID.TID 0000.0001)                         cg2d_res =    4.56324272000750E-14
time,SST,SSS,fu,fv,Q,E-P,i0,i1,a,b =   3.6720E+06 -4.0767E-01  3.4446E+01 -1.6201E-02 -2.0937E-02  2.4259E+02  0.0000E+00     1     2  9.1667E-01  8.3333E-02
time,fu0,fu1,fu =   3.6720E+06 -3.5633E-02 -1.4435E-02 -1.6201E-02  9.1667E-01  8.3333E-02
 cg2d: Sum(rhs),rhsMax =   1.92901250528621E-14  1.02769511075740E+01
(PID.TID 0000.0001)                    cg2d_init_res =    2.65257330899552E-01
(PID.TID 0000.0001)                       cg2d_iters =    24
(PID.TID 0000.0001)                         cg2d_res =    4.32173512419474E-14
time,SST,SSS,fu,fv,Q,E-P,i0,i1,a,b =   3.7152E+06 -4.3250E-01  3.4441E+01 -1.5848E-02 -2.0277E-02  2.4217E+02  0.0000E+00     1     2  9.3333E-01  6.6667E-02
time,fu0,fu1,fu =   3.7152E+06 -3.5633E-02 -1.4435E-02 -1.5848E-02  9.3333E-01  6.6667E-02
 cg2d: Sum(rhs),rhsMax =   7.99776911364347E-14  1.00214503437478E+01
(PID.TID 0000.0001)                    cg2d_init_res =    2.72436471334012E-01
(PID.TID 0000.0001)                       cg2d_iters =    24
(PID.TID 0000.0001)                         cg2d_res =    4.15419469486406E-14
time,SST,SSS,fu,fv,Q,E-P,i0,i1,a,b =   3.7584E+06 -4.5734E-01  3.4436E+01 -1.5495E-02 -1.9617E-02  2.4175E+02  0.0000E+00     1     2  9.5000E-01  5.0000E-02
time,fu0,fu1,fu =   3.7584E+06 -3.5633E-02 -1.4435E-02 -1.5495E-02  9.5000E-01  5.0000E-02
 cg2d: Sum(rhs),rhsMax =  -2.02476924116013E-14  9.68125317600691E+00
(PID.TID 0000.0001)                    cg2d_init_res =    2.84453504767375E-01
(PID.TID 0000.0001)                       cg2d_iters =    24
(PID.TID 0000.0001)                         cg2d_res =    4.07690512923552E-14
time,SST,SSS,fu,fv,Q,E-P,i0,i1,a,b =   3.8016E+06 -4.8218E-01  3.4431E+01 -1.5141E-02 -1.8956E-02  2.4132E+02  0.0000E+00     1     2  9.6667E-01  3.3333E-02
time,fu0,fu1,fu =   3.8016E+06 -3.5633E-02 -1.4435E-02 -1.5141E-02  9.6667E-01  3.3333E-02
 cg2d: Sum(rhs),rhsMax =   1.69447789133415E-13  9.26624592562628E+00
(PID.TID 0000.0001)                    cg2d_init_res =    3.00800826868400E-01
(PID.TID 0000.0001)                       cg2d_iters =    24
(PID.TID 0000.0001)                         cg2d_res =    3.64847426617967E-14
time,SST,SSS,fu,fv,Q,E-P,i0,i1,a,b =   3.8448E+06 -5.0702E-01  3.4426E+01 -1.4788E-02 -1.8296E-02  2.4090E+02  0.0000E+00     1     2  9.8333E-01  1.6667E-02
time,fu0,fu1,fu =   3.8448E+06 -3.5633E-02 -1.4435E-02 -1.4788E-02  9.8333E-01  1.6667E-02
 cg2d: Sum(rhs),rhsMax =   1.61620716809807E-13  8.78736553546055E+00
(PID.TID 0000.0001)                    cg2d_init_res =    3.21097867517426E-01
(PID.TID 0000.0001)                       cg2d_iters =    24
(PID.TID 0000.0001)                         cg2d_res =    4.36150209316722E-14
time,SST,SSS,fu,fv,Q,E-P,i0,i1,a,b =   3.8448E+06 -5.0702E-01  3.4426E+01 -1.4788E-02 -1.8296E-02  2.4090E+02  0.0000E+00     1     2  9.8333E-01  1.6667E-02
time,fu0,fu1,fu =   3.8448E+06 -3.5633E-02 -1.4435E-02 -1.4788E-02  9.8333E-01  1.6667E-02
 cg2d: Sum(rhs),rhsMax =  -1.94913529760754E-14  2.35143661278551E-08
time,SST,SSS,fu,fv,Q,E-P,i0,i1,a,b =   3.8016E+06 -4.8218E-01  3.4431E+01 -1.5141E-02 -1.8956E-02  2.4132E+02  0.0000E+00     1     2  9.6667E-01  3.3333E-02
time,fu0,fu1,fu =   3.8016E+06 -3.5633E-02 -1.4435E-02 -1.5141E-02  9.6667E-01  3.3333E-02
 cg2d: Sum(rhs),rhsMax =   1.14283582597352E-14  2.34611574764110E-08
time,SST,SSS,fu,fv,Q,E-P,i0,i1,a,b =   3.7584E+06 -4.5734E-01  3.4436E+01 -1.5495E-02 -1.9617E-02  2.4175E+02  0.0000E+00     1     2  9.5000E-01  5.0000E-02
time,fu0,fu1,fu =   3.7584E+06 -3.5633E-02 -1.4435E-02 -1.5495E-02  9.5000E-01  5.0000E-02
 cg2d: Sum(rhs),rhsMax =   2.71657696337968E-15  2.30283263836247E-08
time,SST,SSS,fu,fv,Q,E-P,i0,i1,a,b =   3.7152E+06 -4.3250E-01  3.4441E+01 -1.5848E-02 -2.0277E-02  2.4217E+02  0.0000E+00     1     2  9.3333E-01  6.6667E-02
time,fu0,fu1,fu =   3.7152E+06 -3.5633E-02 -1.4435E-02 -1.5848E-02  9.3333E-01  6.6667E-02
 cg2d: Sum(rhs),rhsMax =   1.40755462840758E-14  2.22113298331825E-08
time,SST,SSS,fu,fv,Q,E-P,i0,i1,a,b =   3.6720E+06 -4.0767E-01  3.4446E+01 -1.6201E-02 -2.0937E-02  2.4259E+02  0.0000E+00     1     2  9.1667E-01  8.3333E-02
time,fu0,fu1,fu =   3.6720E+06 -3.5633E-02 -1.4435E-02 -1.6201E-02  9.1667E-01  8.3333E-02
 cg2d: Sum(rhs),rhsMax =   1.72778458207290E-15  2.11445364108089E-08
time,SST,SSS,fu,fv,Q,E-P,i0,i1,a,b =   3.6288E+06 -3.8283E-01  3.4450E+01 -1.6555E-02 -2.1598E-02  2.4301E+02  0.0000E+00     1     2  9.0000E-01  1.0000E-01
time,fu0,fu1,fu =   3.6288E+06 -3.5633E-02 -1.4435E-02 -1.6555E-02  9.0000E-01  1.0000E-01
 cg2d: Sum(rhs),rhsMax =  -1.48422940604576E-14  1.99824905728135E-08
(PID.TID 0000.0001)  MDSREADVECTOR: opening file: tapelev2_1_the_main_loop_gs.it0000.001.001.data
(PID.TID 0000.0001)  MDS_READ_RL_VEC: irec =  00000014   00066240
(PID.TID 0000.0001)  MDSREADVECTOR: opening file: tapelev2_2_the_main_loop_gt.it0000.001.001.data
(PID.TID 0000.0001)  MDS_READ_RL_VEC: irec =  00000014   00066240
(PID.TID 0000.0001)  MDSREADVECTOR: opening file: tapelev2_3_the_main_loop_gsnm1.it0000.001.001.data
(PID.TID 0000.0001)  MDS_READ_RL_VEC: irec =  00000014   00066240
(PID.TID 0000.0001)  MDSREADVECTOR: opening file: tapelev2_4_the_main_loop_gtnm1.it0000.001.001.data
(PID.TID 0000.0001)  MDS_READ_RL_VEC: irec =  00000014   00066240
(PID.TID 0000.0001)  MDSREADVECTOR: opening file: tapelev2_5_the_main_loop_gunm1.it0000.001.001.data
(PID.TID 0000.0001)  MDS_READ_RL_VEC: irec =  00000014   00066240
(PID.TID 0000.0001)  MDSREADVECTOR: opening file: tapelev2_6_the_main_loop_gvnm1.it0000.001.001.data
(PID.TID 0000.0001)  MDS_READ_RL_VEC: irec =  00000014   00066240
(PID.TID 0000.0001)  MDSREADVECTOR: opening file: tapelev2_7_the_main_loop_theta.it0000.001.001.data
(PID.TID 0000.0001)  MDS_READ_RL_VEC: irec =  00000014   00066240
(PID.TID 0000.0001)  MDSREADVECTOR: opening file: tapelev2_8_the_main_loop_salt.it0000.001.001.data
(PID.TID 0000.0001)  MDS_READ_RL_VEC: irec =  00000014   00066240
(PID.TID 0000.0001)  MDSREADVECTOR: opening file: tapelev2_9_the_main_loop_uvel.it0000.001.001.data
(PID.TID 0000.0001)  MDS_READ_RL_VEC: irec =  00000014   00066240
(PID.TID 0000.0001)  MDSREADVECTOR: opening file: tapelev2_10_the_main_loop_vvel.it0000.001.001.data
(PID.TID 0000.0001)  MDS_READ_RL_VEC: irec =  00000014   00066240
(PID.TID 0000.0001)  MDSREADVECTOR: opening file: tapelev2_11_the_main_loop_wvel.it0000.001.001.data
(PID.TID 0000.0001)  MDS_READ_RL_VEC: irec =  00000014   00066240
(PID.TID 0000.0001)  MDSREADVECTOR: opening file: tapelev2_12_the_main_loop_etan.it0000.001.001.data
(PID.TID 0000.0001)  MDS_READ_RL_VEC: irec =  00000014   00004416
(PID.TID 0000.0001)  MDSREADVECTOR: opening file: tapelev2_13_the_main_loop_totphihyd.it0000.001.001.data
(PID.TID 0000.0001)  MDS_READ_RL_VEC: irec =  00000014   00066240
(PID.TID 0000.0001)  MDSREADVECTOR: opening file: tapelev2_15_the_main_loop_surfaceforcingtice.it0000.001.001.data
(PID.TID 0000.0001)  MDS_READ_RL_VEC: irec =  00000014   00004416
(PID.TID 0000.0001)  MDSREADVECTOR: opening file: tapelev2_17_the_main_loop_etah.it0000.001.001.data
(PID.TID 0000.0001)  MDS_READ_RL_VEC: irec =  00000014   00004416
(PID.TID 0000.0001)  MDSREADVECTOR: opening file: tapelev2_18_the_main_loop_detahdt.it0000.001.001.data
(PID.TID 0000.0001)  MDS_READ_RL_VEC: irec =  00000014   00004416
(PID.TID 0000.0001)  MDSREADVECTOR: opening file: tapelev2_19_the_main_loop_pmepr.it0000.001.001.data
(PID.TID 0000.0001)  MDS_READ_RL_VEC: irec =  00000014   00004416
(PID.TID 0000.0001)  MDSREADVECTOR: opening file: tapelev2_20_the_main_loop_taux0.it0000.001.001.data
(PID.TID 0000.0001)  MDS_READ_RL_VEC: irec =  00000014   00004416
(PID.TID 0000.0001)  MDSREADVECTOR: opening file: tapelev2_21_the_main_loop_taux1.it0000.001.001.data
(PID.TID 0000.0001)  MDS_READ_RL_VEC: irec =  00000014   00004416
(PID.TID 0000.0001)  MDSREADVECTOR: opening file: tapelev2_22_the_main_loop_tauy0.it0000.001.001.data
(PID.TID 0000.0001)  MDS_READ_RL_VEC: irec =  00000014   00004416
(PID.TID 0000.0001)  MDSREADVECTOR: opening file: tapelev2_23_the_main_loop_tauy1.it0000.001.001.data
(PID.TID 0000.0001)  MDS_READ_RL_VEC: irec =  00000014   00004416
(PID.TID 0000.0001)  MDSREADVECTOR: opening file: tapelev2_24_the_main_loop_qnet0.it0000.001.001.data
(PID.TID 0000.0001)  MDS_READ_RL_VEC: irec =  00000014   00004416
(PID.TID 0000.0001)  MDSREADVECTOR: opening file: tapelev2_25_the_main_loop_qnet1.it0000.001.001.data
(PID.TID 0000.0001)  MDS_READ_RL_VEC: irec =  00000014   00004416
(PID.TID 0000.0001)  MDSREADVECTOR: opening file: tapelev2_26_the_main_loop_empmr0.it0000.001.001.data
(PID.TID 0000.0001)  MDS_READ_RL_VEC: irec =  00000014   00004416
(PID.TID 0000.0001)  MDSREADVECTOR: opening file: tapelev2_27_the_main_loop_empmr1.it0000.001.001.data
(PID.TID 0000.0001)  MDS_READ_RL_VEC: irec =  00000014   00004416
(PID.TID 0000.0001)  MDSREADVECTOR: opening file: tapelev2_28_the_main_loop_sst0.it0000.001.001.data
(PID.TID 0000.0001)  MDS_READ_RL_VEC: irec =  00000014   00004416
(PID.TID 0000.0001)  MDSREADVECTOR: opening file: tapelev2_29_the_main_loop_sst1.it0000.001.001.data
(PID.TID 0000.0001)  MDS_READ_RL_VEC: irec =  00000014   00004416
(PID.TID 0000.0001)  MDSREADVECTOR: opening file: tapelev2_30_the_main_loop_sss0.it0000.001.001.data
(PID.TID 0000.0001)  MDS_READ_RL_VEC: irec =  00000014   00004416
(PID.TID 0000.0001)  MDSREADVECTOR: opening file: tapelev2_31_the_main_loop_sss1.it0000.001.001.data
(PID.TID 0000.0001)  MDS_READ_RL_VEC: irec =  00000014   00004416
(PID.TID 0000.0001)  MDSREADVECTOR: opening file: tapelev2_32_the_main_loop_qsw0.it0000.001.001.data
(PID.TID 0000.0001)  MDS_READ_RL_VEC: irec =  00000014   00004416
(PID.TID 0000.0001)  MDSREADVECTOR: opening file: tapelev2_33_the_main_loop_qsw1.it0000.001.001.data
(PID.TID 0000.0001)  MDS_READ_RL_VEC: irec =  00000014   00004416
time,SST,SSS,fu,fv,Q,E-P,i0,i1,a,b =   3.3696E+06 -2.3380E-01  3.4480E+01 -1.8674E-02 -2.5560E-02  2.4554E+02  0.0000E+00     1     2  8.0000E-01  2.0000E-01
time,fu0,fu1,fu =   3.3696E+06 -3.5633E-02 -1.4435E-02 -1.8674E-02  8.0000E-01  2.0000E-01
 cg2d: Sum(rhs),rhsMax =   3.15442116871623E-14  9.32820152622927E+00
(PID.TID 0000.0001)                    cg2d_init_res =    3.86634412787511E-01
(PID.TID 0000.0001)                       cg2d_iters =    24
(PID.TID 0000.0001)                         cg2d_res =    7.70212412982158E-14
time,SST,SSS,fu,fv,Q,E-P,i0,i1,a,b =   3.4128E+06 -2.5864E-01  3.4475E+01 -1.8321E-02 -2.4899E-02  2.4512E+02  0.0000E+00     1     2  8.1667E-01  1.8333E-01
time,fu0,fu1,fu =   3.4128E+06 -3.5633E-02 -1.4435E-02 -1.8321E-02  8.1667E-01  1.8333E-01
 cg2d: Sum(rhs),rhsMax =   1.65423230669148E-13  9.78281000944755E+00
(PID.TID 0000.0001)                    cg2d_init_res =    3.48296791320533E-01
(PID.TID 0000.0001)                       cg2d_iters =    24
(PID.TID 0000.0001)                         cg2d_res =    5.94647986456955E-14
time,SST,SSS,fu,fv,Q,E-P,i0,i1,a,b =   3.4560E+06 -2.8348E-01  3.4470E+01 -1.7968E-02 -2.4239E-02  2.4470E+02  0.0000E+00     1     2  8.3333E-01  1.6667E-01
time,fu0,fu1,fu =   3.4560E+06 -3.5633E-02 -1.4435E-02 -1.7968E-02  8.3333E-01  1.6667E-01
 cg2d: Sum(rhs),rhsMax =   8.86374307285109E-14  1.01326134749906E+01
(PID.TID 0000.0001)                    cg2d_init_res =    3.17498451819598E-01
(PID.TID 0000.0001)                       cg2d_iters =    23
(PID.TID 0000.0001)                         cg2d_res =    7.55904640275585E-14
time,SST,SSS,fu,fv,Q,E-P,i0,i1,a,b =   3.4992E+06 -3.0831E-01  3.4465E+01 -1.7614E-02 -2.3579E-02  2.4427E+02  0.0000E+00     1     2  8.5000E-01  1.5000E-01
time,fu0,fu1,fu =   3.4992E+06 -3.5633E-02 -1.4435E-02 -1.7614E-02  8.5000E-01  1.5000E-01
 cg2d: Sum(rhs),rhsMax =  -4.54844495401119E-13  1.03744128804497E+01
(PID.TID 0000.0001)                    cg2d_init_res =    2.93823210923501E-01
(PID.TID 0000.0001)                       cg2d_iters =    24
(PID.TID 0000.0001)                         cg2d_res =    4.30144060569559E-14
time,SST,SSS,fu,fv,Q,E-P,i0,i1,a,b =   3.5424E+06 -3.3315E-01  3.4460E+01 -1.7261E-02 -2.2918E-02  2.4385E+02  0.0000E+00     1     2  8.6667E-01  1.3333E-01
time,fu0,fu1,fu =   3.5424E+06 -3.5633E-02 -1.4435E-02 -1.7261E-02  8.6667E-01  1.3333E-01
 cg2d: Sum(rhs),rhsMax =  -8.29475377273070E-14  1.05072072836047E+01
(PID.TID 0000.0001)                    cg2d_init_res =    2.77032835226326E-01
(PID.TID 0000.0001)                       cg2d_iters =    24
(PID.TID 0000.0001)                         cg2d_res =    5.23024409505130E-14
time,SST,SSS,fu,fv,Q,E-P,i0,i1,a,b =   3.5856E+06 -3.5799E-01  3.4455E+01 -1.6908E-02 -2.2258E-02  2.4343E+02  0.0000E+00     1     2  8.8333E-01  1.1667E-01
time,fu0,fu1,fu =   3.5856E+06 -3.5633E-02 -1.4435E-02 -1.6908E-02  8.8333E-01  1.1667E-01
 cg2d: Sum(rhs),rhsMax =  -2.68007838144513E-13  1.05321350243996E+01
(PID.TID 0000.0001)                    cg2d_init_res =    2.66908362384659E-01
(PID.TID 0000.0001)                       cg2d_iters =    24
(PID.TID 0000.0001)                         cg2d_res =    4.88349851732217E-14
time,SST,SSS,fu,fv,Q,E-P,i0,i1,a,b =   3.5856E+06 -3.5799E-01  3.4455E+01 -1.6908E-02 -2.2258E-02  2.4343E+02  0.0000E+00     1     2  8.8333E-01  1.1667E-01
time,fu0,fu1,fu =   3.5856E+06 -3.5633E-02 -1.4435E-02 -1.6908E-02  8.8333E-01  1.1667E-01
 cg2d: Sum(rhs),rhsMax =  -9.42648736845797E-15  2.11783668538597E-08
time,SST,SSS,fu,fv,Q,E-P,i0,i1,a,b =   3.5424E+06 -3.3315E-01  3.4460E+01 -1.7261E-02 -2.2918E-02  2.4385E+02  0.0000E+00     1     2  8.6667E-01  1.3333E-01
time,fu0,fu1,fu =   3.5424E+06 -3.5633E-02 -1.4435E-02 -1.7261E-02  8.6667E-01  1.3333E-01
 cg2d: Sum(rhs),rhsMax =   6.56419363309624E-15  2.34903715993234E-08
time,SST,SSS,fu,fv,Q,E-P,i0,i1,a,b =   3.4992E+06 -3.0831E-01  3.4465E+01 -1.7614E-02 -2.3579E-02  2.4427E+02  0.0000E+00     1     2  8.5000E-01  1.5000E-01
time,fu0,fu1,fu =   3.4992E+06 -3.5633E-02 -1.4435E-02 -1.7614E-02  8.5000E-01  1.5000E-01
 cg2d: Sum(rhs),rhsMax =   4.97345220562551E-15  2.49783135283917E-08
time,SST,SSS,fu,fv,Q,E-P,i0,i1,a,b =   3.4560E+06 -2.8348E-01  3.4470E+01 -1.7968E-02 -2.4239E-02  2.4470E+02  0.0000E+00     1     2  8.3333E-01  1.6667E-01
time,fu0,fu1,fu =   3.4560E+06 -3.5633E-02 -1.4435E-02 -1.7968E-02  8.3333E-01  1.6667E-01
 cg2d: Sum(rhs),rhsMax =  -1.83013326715553E-15  2.55971402588937E-08
time,SST,SSS,fu,fv,Q,E-P,i0,i1,a,b =   3.4128E+06 -2.5864E-01  3.4475E+01 -1.8321E-02 -2.4899E-02  2.4512E+02  0.0000E+00     1     2  8.1667E-01  1.8333E-01
time,fu0,fu1,fu =   3.4128E+06 -3.5633E-02 -1.4435E-02 -1.8321E-02  8.1667E-01  1.8333E-01
 cg2d: Sum(rhs),rhsMax =   5.01335084557297E-15  2.53384248552771E-08
time,SST,SSS,fu,fv,Q,E-P,i0,i1,a,b =   3.3696E+06 -2.3380E-01  3.4480E+01 -1.8674E-02 -2.5560E-02  2.4554E+02  0.0000E+00     1     2  8.0000E-01  2.0000E-01
time,fu0,fu1,fu =   3.3696E+06 -3.5633E-02 -1.4435E-02 -1.8674E-02  8.0000E-01  2.0000E-01
 cg2d: Sum(rhs),rhsMax =  -4.70803951380105E-15  2.42264763391912E-08
(PID.TID 0000.0001)  MDSREADVECTOR: opening file: tapelev2_1_the_main_loop_gs.it0000.001.001.data
(PID.TID 0000.0001)  MDS_READ_RL_VEC: irec =  00000013   00066240
(PID.TID 0000.0001)  MDSREADVECTOR: opening file: tapelev2_2_the_main_loop_gt.it0000.001.001.data
(PID.TID 0000.0001)  MDS_READ_RL_VEC: irec =  00000013   00066240
(PID.TID 0000.0001)  MDSREADVECTOR: opening file: tapelev2_3_the_main_loop_gsnm1.it0000.001.001.data
(PID.TID 0000.0001)  MDS_READ_RL_VEC: irec =  00000013   00066240
(PID.TID 0000.0001)  MDSREADVECTOR: opening file: tapelev2_4_the_main_loop_gtnm1.it0000.001.001.data
(PID.TID 0000.0001)  MDS_READ_RL_VEC: irec =  00000013   00066240
(PID.TID 0000.0001)  MDSREADVECTOR: opening file: tapelev2_5_the_main_loop_gunm1.it0000.001.001.data
(PID.TID 0000.0001)  MDS_READ_RL_VEC: irec =  00000013   00066240
(PID.TID 0000.0001)  MDSREADVECTOR: opening file: tapelev2_6_the_main_loop_gvnm1.it0000.001.001.data
(PID.TID 0000.0001)  MDS_READ_RL_VEC: irec =  00000013   00066240
(PID.TID 0000.0001)  MDSREADVECTOR: opening file: tapelev2_7_the_main_loop_theta.it0000.001.001.data
(PID.TID 0000.0001)  MDS_READ_RL_VEC: irec =  00000013   00066240
(PID.TID 0000.0001)  MDSREADVECTOR: opening file: tapelev2_8_the_main_loop_salt.it0000.001.001.data
(PID.TID 0000.0001)  MDS_READ_RL_VEC: irec =  00000013   00066240
(PID.TID 0000.0001)  MDSREADVECTOR: opening file: tapelev2_9_the_main_loop_uvel.it0000.001.001.data
(PID.TID 0000.0001)  MDS_READ_RL_VEC: irec =  00000013   00066240
(PID.TID 0000.0001)  MDSREADVECTOR: opening file: tapelev2_10_the_main_loop_vvel.it0000.001.001.data
(PID.TID 0000.0001)  MDS_READ_RL_VEC: irec =  00000013   00066240
(PID.TID 0000.0001)  MDSREADVECTOR: opening file: tapelev2_11_the_main_loop_wvel.it0000.001.001.data
(PID.TID 0000.0001)  MDS_READ_RL_VEC: irec =  00000013   00066240
(PID.TID 0000.0001)  MDSREADVECTOR: opening file: tapelev2_12_the_main_loop_etan.it0000.001.001.data
(PID.TID 0000.0001)  MDS_READ_RL_VEC: irec =  00000013   00004416
(PID.TID 0000.0001)  MDSREADVECTOR: opening file: tapelev2_13_the_main_loop_totphihyd.it0000.001.001.data
(PID.TID 0000.0001)  MDS_READ_RL_VEC: irec =  00000013   00066240
(PID.TID 0000.0001)  MDSREADVECTOR: opening file: tapelev2_15_the_main_loop_surfaceforcingtice.it0000.001.001.data
(PID.TID 0000.0001)  MDS_READ_RL_VEC: irec =  00000013   00004416
(PID.TID 0000.0001)  MDSREADVECTOR: opening file: tapelev2_17_the_main_loop_etah.it0000.001.001.data
(PID.TID 0000.0001)  MDS_READ_RL_VEC: irec =  00000013   00004416
(PID.TID 0000.0001)  MDSREADVECTOR: opening file: tapelev2_18_the_main_loop_detahdt.it0000.001.001.data
(PID.TID 0000.0001)  MDS_READ_RL_VEC: irec =  00000013   00004416
(PID.TID 0000.0001)  MDSREADVECTOR: opening file: tapelev2_19_the_main_loop_pmepr.it0000.001.001.data
(PID.TID 0000.0001)  MDS_READ_RL_VEC: irec =  00000013   00004416
(PID.TID 0000.0001)  MDSREADVECTOR: opening file: tapelev2_20_the_main_loop_taux0.it0000.001.001.data
(PID.TID 0000.0001)  MDS_READ_RL_VEC: irec =  00000013   00004416
(PID.TID 0000.0001)  MDSREADVECTOR: opening file: tapelev2_21_the_main_loop_taux1.it0000.001.001.data
(PID.TID 0000.0001)  MDS_READ_RL_VEC: irec =  00000013   00004416
(PID.TID 0000.0001)  MDSREADVECTOR: opening file: tapelev2_22_the_main_loop_tauy0.it0000.001.001.data
(PID.TID 0000.0001)  MDS_READ_RL_VEC: irec =  00000013   00004416
(PID.TID 0000.0001)  MDSREADVECTOR: opening file: tapelev2_23_the_main_loop_tauy1.it0000.001.001.data
(PID.TID 0000.0001)  MDS_READ_RL_VEC: irec =  00000013   00004416
(PID.TID 0000.0001)  MDSREADVECTOR: opening file: tapelev2_24_the_main_loop_qnet0.it0000.001.001.data
(PID.TID 0000.0001)  MDS_READ_RL_VEC: irec =  00000013   00004416
(PID.TID 0000.0001)  MDSREADVECTOR: opening file: tapelev2_25_the_main_loop_qnet1.it0000.001.001.data
(PID.TID 0000.0001)  MDS_READ_RL_VEC: irec =  00000013   00004416
(PID.TID 0000.0001)  MDSREADVECTOR: opening file: tapelev2_26_the_main_loop_empmr0.it0000.001.001.data
(PID.TID 0000.0001)  MDS_READ_RL_VEC: irec =  00000013   00004416
(PID.TID 0000.0001)  MDSREADVECTOR: opening file: tapelev2_27_the_main_loop_empmr1.it0000.001.001.data
(PID.TID 0000.0001)  MDS_READ_RL_VEC: irec =  00000013   00004416
(PID.TID 0000.0001)  MDSREADVECTOR: opening file: tapelev2_28_the_main_loop_sst0.it0000.001.001.data
(PID.TID 0000.0001)  MDS_READ_RL_VEC: irec =  00000013   00004416
(PID.TID 0000.0001)  MDSREADVECTOR: opening file: tapelev2_29_the_main_loop_sst1.it0000.001.001.data
(PID.TID 0000.0001)  MDS_READ_RL_VEC: irec =  00000013   00004416
(PID.TID 0000.0001)  MDSREADVECTOR: opening file: tapelev2_30_the_main_loop_sss0.it0000.001.001.data
(PID.TID 0000.0001)  MDS_READ_RL_VEC: irec =  00000013   00004416
(PID.TID 0000.0001)  MDSREADVECTOR: opening file: tapelev2_31_the_main_loop_sss1.it0000.001.001.data
(PID.TID 0000.0001)  MDS_READ_RL_VEC: irec =  00000013   00004416
(PID.TID 0000.0001)  MDSREADVECTOR: opening file: tapelev2_32_the_main_loop_qsw0.it0000.001.001.data
(PID.TID 0000.0001)  MDS_READ_RL_VEC: irec =  00000013   00004416
(PID.TID 0000.0001)  MDSREADVECTOR: opening file: tapelev2_33_the_main_loop_qsw1.it0000.001.001.data
(PID.TID 0000.0001)  MDS_READ_RL_VEC: irec =  00000013   00004416
time,SST,SSS,fu,fv,Q,E-P,i0,i1,a,b =   3.1104E+06 -8.4772E-02  3.4509E+01 -2.0794E-02 -2.9522E-02  2.4807E+02  0.0000E+00     1     2  7.0000E-01  3.0000E-01
time,fu0,fu1,fu =   3.1104E+06 -3.5633E-02 -1.4435E-02 -2.0794E-02  7.0000E-01  3.0000E-01
 cg2d: Sum(rhs),rhsMax =  -3.88786225435922E-13  8.54125117040081E+00
(PID.TID 0000.0001)                    cg2d_init_res =    5.06880882606033E-01
(PID.TID 0000.0001)                       cg2d_iters =    24
(PID.TID 0000.0001)                         cg2d_res =    9.00636611419659E-14
time,SST,SSS,fu,fv,Q,E-P,i0,i1,a,b =   3.1536E+06 -1.0961E-01  3.4504E+01 -2.0441E-02 -2.8862E-02  2.4765E+02  0.0000E+00     1     2  7.1667E-01  2.8333E-01
time,fu0,fu1,fu =   3.1536E+06 -3.5633E-02 -1.4435E-02 -2.0441E-02  7.1667E-01  2.8333E-01
 cg2d: Sum(rhs),rhsMax =   4.48446835221716E-13  7.85660875145875E+00
(PID.TID 0000.0001)                    cg2d_init_res =    5.48481170074057E-01
(PID.TID 0000.0001)                       cg2d_iters =    24
(PID.TID 0000.0001)                         cg2d_res =    4.81060077093608E-14
time,SST,SSS,fu,fv,Q,E-P,i0,i1,a,b =   3.1968E+06 -1.3445E-01  3.4499E+01 -2.0088E-02 -2.8201E-02  2.4722E+02  0.0000E+00     1     2  7.3333E-01  2.6667E-01
time,fu0,fu1,fu =   3.1968E+06 -3.5633E-02 -1.4435E-02 -2.0088E-02  7.3333E-01  2.6667E-01
 cg2d: Sum(rhs),rhsMax =   3.78030939884866E-13  7.50280922718734E+00
(PID.TID 0000.0001)                    cg2d_init_res =    5.65336949939099E-01
(PID.TID 0000.0001)                       cg2d_iters =    24
(PID.TID 0000.0001)                         cg2d_res =    9.43481579573662E-14
time,SST,SSS,fu,fv,Q,E-P,i0,i1,a,b =   3.2400E+06 -1.5929E-01  3.4494E+01 -1.9734E-02 -2.7541E-02  2.4680E+02  0.0000E+00     1     2  7.5000E-01  2.5000E-01
time,fu0,fu1,fu =   3.2400E+06 -3.5633E-02 -1.4435E-02 -1.9734E-02  7.5000E-01  2.5000E-01
 cg2d: Sum(rhs),rhsMax =  -8.74578187648467E-13  7.40659063233431E+00
(PID.TID 0000.0001)                    cg2d_init_res =    5.57569703366644E-01
(PID.TID 0000.0001)                       cg2d_iters =    25
(PID.TID 0000.0001)                         cg2d_res =    2.46976426337892E-14
time,SST,SSS,fu,fv,Q,E-P,i0,i1,a,b =   3.2832E+06 -1.8412E-01  3.4490E+01 -1.9381E-02 -2.6880E-02  2.4638E+02  0.0000E+00     1     2  7.6667E-01  2.3333E-01
time,fu0,fu1,fu =   3.2832E+06 -3.5633E-02 -1.4435E-02 -1.9381E-02  7.6667E-01  2.3333E-01
 cg2d: Sum(rhs),rhsMax =  -8.98586760555986E-14  8.12844776506082E+00
(PID.TID 0000.0001)                    cg2d_init_res =    4.89632226905567E-01
(PID.TID 0000.0001)                       cg2d_iters =    24
(PID.TID 0000.0001)                         cg2d_res =    9.78425682195886E-14
time,SST,SSS,fu,fv,Q,E-P,i0,i1,a,b =   3.3264E+06 -2.0896E-01  3.4485E+01 -1.9028E-02 -2.6220E-02  2.4596E+02  0.0000E+00     1     2  7.8333E-01  2.1667E-01
time,fu0,fu1,fu =   3.3264E+06 -3.5633E-02 -1.4435E-02 -1.9028E-02  7.8333E-01  2.1667E-01
 cg2d: Sum(rhs),rhsMax =  -1.04513619980651E-13  8.77420727303612E+00
(PID.TID 0000.0001)                    cg2d_init_res =    4.33287773360027E-01
(PID.TID 0000.0001)                       cg2d_iters =    24
(PID.TID 0000.0001)                         cg2d_res =    8.72298380906462E-14
time,SST,SSS,fu,fv,Q,E-P,i0,i1,a,b =   3.3264E+06 -2.0896E-01  3.4485E+01 -1.9028E-02 -2.6220E-02  2.4596E+02  0.0000E+00     1     2  7.8333E-01  2.1667E-01
time,fu0,fu1,fu =   3.3264E+06 -3.5633E-02 -1.4435E-02 -1.9028E-02  7.8333E-01  2.1667E-01
 cg2d: Sum(rhs),rhsMax =   3.93261812003942E-15  2.23274508786798E-08
time,SST,SSS,fu,fv,Q,E-P,i0,i1,a,b =   3.2832E+06 -1.8412E-01  3.4490E+01 -1.9381E-02 -2.6880E-02  2.4638E+02  0.0000E+00     1     2  7.6667E-01  2.3333E-01
time,fu0,fu1,fu =   3.2832E+06 -3.5633E-02 -1.4435E-02 -1.9381E-02  7.6667E-01  2.3333E-01
 cg2d: Sum(rhs),rhsMax =   1.51111761992340E-14  1.97373525000286E-08
time,SST,SSS,fu,fv,Q,E-P,i0,i1,a,b =   3.2400E+06 -1.5929E-01  3.4494E+01 -1.9734E-02 -2.7541E-02  2.4680E+02  0.0000E+00     1     2  7.5000E-01  2.5000E-01
time,fu0,fu1,fu =   3.2400E+06 -3.5633E-02 -1.4435E-02 -1.9734E-02  7.5000E-01  2.5000E-01
 cg2d: Sum(rhs),rhsMax =  -8.67014793293208E-15  1.65773919722201E-08
time,SST,SSS,fu,fv,Q,E-P,i0,i1,a,b =   3.1968E+06 -1.3445E-01  3.4499E+01 -2.0088E-02 -2.8201E-02  2.4722E+02  0.0000E+00     1     2  7.3333E-01  2.6667E-01
time,fu0,fu1,fu =   3.1968E+06 -3.5633E-02 -1.4435E-02 -2.0088E-02  7.3333E-01  2.6667E-01
 cg2d: Sum(rhs),rhsMax =   2.10907680209260E-14  1.39802510556276E-08
time,SST,SSS,fu,fv,Q,E-P,i0,i1,a,b =   3.1536E+06 -1.0961E-01  3.4504E+01 -2.0441E-02 -2.8862E-02  2.4765E+02  0.0000E+00     1     2  7.1667E-01  2.8333E-01
time,fu0,fu1,fu =   3.1536E+06 -3.5633E-02 -1.4435E-02 -2.0441E-02  7.1667E-01  2.8333E-01
 cg2d: Sum(rhs),rhsMax =   1.89397109107148E-14  1.28142142278597E-08
time,SST,SSS,fu,fv,Q,E-P,i0,i1,a,b =   3.1104E+06 -8.4772E-02  3.4509E+01 -2.0794E-02 -2.9522E-02  2.4807E+02  0.0000E+00     1     2  7.0000E-01  3.0000E-01
time,fu0,fu1,fu =   3.1104E+06 -3.5633E-02 -1.4435E-02 -2.0794E-02  7.0000E-01  3.0000E-01
 cg2d: Sum(rhs),rhsMax =  -1.26808286093905E-14  1.12673597945261E-08
(PID.TID 0000.0001)  MDSREADVECTOR: opening file: tapelev2_1_the_main_loop_gs.it0000.001.001.data
(PID.TID 0000.0001)  MDS_READ_RL_VEC: irec =  00000012   00066240
(PID.TID 0000.0001)  MDSREADVECTOR: opening file: tapelev2_2_the_main_loop_gt.it0000.001.001.data
(PID.TID 0000.0001)  MDS_READ_RL_VEC: irec =  00000012   00066240
(PID.TID 0000.0001)  MDSREADVECTOR: opening file: tapelev2_3_the_main_loop_gsnm1.it0000.001.001.data
(PID.TID 0000.0001)  MDS_READ_RL_VEC: irec =  00000012   00066240
(PID.TID 0000.0001)  MDSREADVECTOR: opening file: tapelev2_4_the_main_loop_gtnm1.it0000.001.001.data
(PID.TID 0000.0001)  MDS_READ_RL_VEC: irec =  00000012   00066240
(PID.TID 0000.0001)  MDSREADVECTOR: opening file: tapelev2_5_the_main_loop_gunm1.it0000.001.001.data
(PID.TID 0000.0001)  MDS_READ_RL_VEC: irec =  00000012   00066240
(PID.TID 0000.0001)  MDSREADVECTOR: opening file: tapelev2_6_the_main_loop_gvnm1.it0000.001.001.data
(PID.TID 0000.0001)  MDS_READ_RL_VEC: irec =  00000012   00066240
(PID.TID 0000.0001)  MDSREADVECTOR: opening file: tapelev2_7_the_main_loop_theta.it0000.001.001.data
(PID.TID 0000.0001)  MDS_READ_RL_VEC: irec =  00000012   00066240
(PID.TID 0000.0001)  MDSREADVECTOR: opening file: tapelev2_8_the_main_loop_salt.it0000.001.001.data
(PID.TID 0000.0001)  MDS_READ_RL_VEC: irec =  00000012   00066240
(PID.TID 0000.0001)  MDSREADVECTOR: opening file: tapelev2_9_the_main_loop_uvel.it0000.001.001.data
(PID.TID 0000.0001)  MDS_READ_RL_VEC: irec =  00000012   00066240
(PID.TID 0000.0001)  MDSREADVECTOR: opening file: tapelev2_10_the_main_loop_vvel.it0000.001.001.data
(PID.TID 0000.0001)  MDS_READ_RL_VEC: irec =  00000012   00066240
(PID.TID 0000.0001)  MDSREADVECTOR: opening file: tapelev2_11_the_main_loop_wvel.it0000.001.001.data
(PID.TID 0000.0001)  MDS_READ_RL_VEC: irec =  00000012   00066240
(PID.TID 0000.0001)  MDSREADVECTOR: opening file: tapelev2_12_the_main_loop_etan.it0000.001.001.data
(PID.TID 0000.0001)  MDS_READ_RL_VEC: irec =  00000012   00004416
(PID.TID 0000.0001)  MDSREADVECTOR: opening file: tapelev2_13_the_main_loop_totphihyd.it0000.001.001.data
(PID.TID 0000.0001)  MDS_READ_RL_VEC: irec =  00000012   00066240
(PID.TID 0000.0001)  MDSREADVECTOR: opening file: tapelev2_15_the_main_loop_surfaceforcingtice.it0000.001.001.data
(PID.TID 0000.0001)  MDS_READ_RL_VEC: irec =  00000012   00004416
(PID.TID 0000.0001)  MDSREADVECTOR: opening file: tapelev2_17_the_main_loop_etah.it0000.001.001.data
(PID.TID 0000.0001)  MDS_READ_RL_VEC: irec =  00000012   00004416
(PID.TID 0000.0001)  MDSREADVECTOR: opening file: tapelev2_18_the_main_loop_detahdt.it0000.001.001.data
(PID.TID 0000.0001)  MDS_READ_RL_VEC: irec =  00000012   00004416
(PID.TID 0000.0001)  MDSREADVECTOR: opening file: tapelev2_19_the_main_loop_pmepr.it0000.001.001.data
(PID.TID 0000.0001)  MDS_READ_RL_VEC: irec =  00000012   00004416
(PID.TID 0000.0001)  MDSREADVECTOR: opening file: tapelev2_20_the_main_loop_taux0.it0000.001.001.data
(PID.TID 0000.0001)  MDS_READ_RL_VEC: irec =  00000012   00004416
(PID.TID 0000.0001)  MDSREADVECTOR: opening file: tapelev2_21_the_main_loop_taux1.it0000.001.001.data
(PID.TID 0000.0001)  MDS_READ_RL_VEC: irec =  00000012   00004416
(PID.TID 0000.0001)  MDSREADVECTOR: opening file: tapelev2_22_the_main_loop_tauy0.it0000.001.001.data
(PID.TID 0000.0001)  MDS_READ_RL_VEC: irec =  00000012   00004416
(PID.TID 0000.0001)  MDSREADVECTOR: opening file: tapelev2_23_the_main_loop_tauy1.it0000.001.001.data
(PID.TID 0000.0001)  MDS_READ_RL_VEC: irec =  00000012   00004416
(PID.TID 0000.0001)  MDSREADVECTOR: opening file: tapelev2_24_the_main_loop_qnet0.it0000.001.001.data
(PID.TID 0000.0001)  MDS_READ_RL_VEC: irec =  00000012   00004416
(PID.TID 0000.0001)  MDSREADVECTOR: opening file: tapelev2_25_the_main_loop_qnet1.it0000.001.001.data
(PID.TID 0000.0001)  MDS_READ_RL_VEC: irec =  00000012   00004416
(PID.TID 0000.0001)  MDSREADVECTOR: opening file: tapelev2_26_the_main_loop_empmr0.it0000.001.001.data
(PID.TID 0000.0001)  MDS_READ_RL_VEC: irec =  00000012   00004416
(PID.TID 0000.0001)  MDSREADVECTOR: opening file: tapelev2_27_the_main_loop_empmr1.it0000.001.001.data
(PID.TID 0000.0001)  MDS_READ_RL_VEC: irec =  00000012   00004416
(PID.TID 0000.0001)  MDSREADVECTOR: opening file: tapelev2_28_the_main_loop_sst0.it0000.001.001.data
(PID.TID 0000.0001)  MDS_READ_RL_VEC: irec =  00000012   00004416
(PID.TID 0000.0001)  MDSREADVECTOR: opening file: tapelev2_29_the_main_loop_sst1.it0000.001.001.data
(PID.TID 0000.0001)  MDS_READ_RL_VEC: irec =  00000012   00004416
(PID.TID 0000.0001)  MDSREADVECTOR: opening file: tapelev2_30_the_main_loop_sss0.it0000.001.001.data
(PID.TID 0000.0001)  MDS_READ_RL_VEC: irec =  00000012   00004416
(PID.TID 0000.0001)  MDSREADVECTOR: opening file: tapelev2_31_the_main_loop_sss1.it0000.001.001.data
(PID.TID 0000.0001)  MDS_READ_RL_VEC: irec =  00000012   00004416
(PID.TID 0000.0001)  MDSREADVECTOR: opening file: tapelev2_32_the_main_loop_qsw0.it0000.001.001.data
(PID.TID 0000.0001)  MDS_READ_RL_VEC: irec =  00000012   00004416
(PID.TID 0000.0001)  MDSREADVECTOR: opening file: tapelev2_33_the_main_loop_qsw1.it0000.001.001.data
(PID.TID 0000.0001)  MDS_READ_RL_VEC: irec =  00000012   00004416
time,SST,SSS,fu,fv,Q,E-P,i0,i1,a,b =   2.8512E+06  6.4256E-02  3.4538E+01 -2.2914E-02 -3.3484E-02  2.5060E+02  0.0000E+00     1     2  6.0000E-01  4.0000E-01
time,fu0,fu1,fu =   2.8512E+06 -3.5633E-02 -1.4435E-02 -2.2914E-02  6.0000E-01  4.0000E-01
 cg2d: Sum(rhs),rhsMax =   3.13638004456607E-14  1.18939190521365E+01
(PID.TID 0000.0001)                    cg2d_init_res =    3.21493063927233E-01
(PID.TID 0000.0001)                       cg2d_iters =    24
(PID.TID 0000.0001)                         cg2d_res =    4.58718635113936E-14
time,SST,SSS,fu,fv,Q,E-P,i0,i1,a,b =   2.8944E+06  3.9418E-02  3.4534E+01 -2.2561E-02 -3.2824E-02  2.5018E+02  0.0000E+00     1     2  6.1667E-01  3.8333E-01
time,fu0,fu1,fu =   2.8944E+06 -3.5633E-02 -1.4435E-02 -2.2561E-02  6.1667E-01  3.8333E-01
 cg2d: Sum(rhs),rhsMax =   1.16073817224560E-13  1.15154297935071E+01
(PID.TID 0000.0001)                    cg2d_init_res =    3.39778970194467E-01
(PID.TID 0000.0001)                       cg2d_iters =    24
(PID.TID 0000.0001)                         cg2d_res =    5.74832296071127E-14
time,SST,SSS,fu,fv,Q,E-P,i0,i1,a,b =   2.9376E+06  1.4580E-02  3.4529E+01 -2.2207E-02 -3.2163E-02  2.4975E+02  0.0000E+00     1     2  6.3333E-01  3.6667E-01
time,fu0,fu1,fu =   2.9376E+06 -3.5633E-02 -1.4435E-02 -2.2207E-02  6.3333E-01  3.6667E-01
 cg2d: Sum(rhs),rhsMax =  -1.42816314330219E-13  1.10412060552555E+01
(PID.TID 0000.0001)                    cg2d_init_res =    3.64462167187368E-01
(PID.TID 0000.0001)                       cg2d_iters =    24
(PID.TID 0000.0001)                         cg2d_res =    6.66344802431634E-14
time,SST,SSS,fu,fv,Q,E-P,i0,i1,a,b =   2.9808E+06 -1.0258E-02  3.4524E+01 -2.1854E-02 -3.1503E-02  2.4933E+02  0.0000E+00     1     2  6.5000E-01  3.5000E-01
time,fu0,fu1,fu =   2.9808E+06 -3.5633E-02 -1.4435E-02 -2.1854E-02  6.5000E-01  3.5000E-01
 cg2d: Sum(rhs),rhsMax =  -9.41330347004055E-14  1.04884337338887E+01
(PID.TID 0000.0001)                    cg2d_init_res =    3.94529851225672E-01
(PID.TID 0000.0001)                       cg2d_iters =    24
(PID.TID 0000.0001)                         cg2d_res =    7.47433895062277E-14
time,SST,SSS,fu,fv,Q,E-P,i0,i1,a,b =   3.0240E+06 -3.5096E-02  3.4519E+01 -2.1501E-02 -3.0843E-02  2.4891E+02  0.0000E+00     1     2  6.6667E-01  3.3333E-01
time,fu0,fu1,fu =   3.0240E+06 -3.5633E-02 -1.4435E-02 -2.1501E-02  6.6667E-01  3.3333E-01
 cg2d: Sum(rhs),rhsMax =   2.23154827949656E-13  9.87521761848856E+00
(PID.TID 0000.0001)                    cg2d_init_res =    4.28946567385830E-01
(PID.TID 0000.0001)                       cg2d_iters =    24
(PID.TID 0000.0001)                         cg2d_res =    8.22696040073840E-14
time,SST,SSS,fu,fv,Q,E-P,i0,i1,a,b =   3.0672E+06 -5.9934E-02  3.4514E+01 -2.1147E-02 -3.0182E-02  2.4849E+02  0.0000E+00     1     2  6.8333E-01  3.1667E-01
time,fu0,fu1,fu =   3.0672E+06 -3.5633E-02 -1.4435E-02 -2.1147E-02  6.8333E-01  3.1667E-01
 cg2d: Sum(rhs),rhsMax =  -3.18217674433185E-14  9.22003939404326E+00
(PID.TID 0000.0001)                    cg2d_init_res =    4.66718525253320E-01
(PID.TID 0000.0001)                       cg2d_iters =    24
(PID.TID 0000.0001)                         cg2d_res =    8.88302502301044E-14
time,SST,SSS,fu,fv,Q,E-P,i0,i1,a,b =   3.0672E+06 -5.9934E-02  3.4514E+01 -2.1147E-02 -3.0182E-02  2.4849E+02  0.0000E+00     1     2  6.8333E-01  3.1667E-01
time,fu0,fu1,fu =   3.0672E+06 -3.5633E-02 -1.4435E-02 -2.1147E-02  6.8333E-01  3.1667E-01
 cg2d: Sum(rhs),rhsMax =  -2.09277040141842E-14  9.42013586852143E-09
time,SST,SSS,fu,fv,Q,E-P,i0,i1,a,b =   3.0240E+06 -3.5096E-02  3.4519E+01 -2.1501E-02 -3.0843E-02  2.4891E+02  0.0000E+00     1     2  6.6667E-01  3.3333E-01
time,fu0,fu1,fu =   3.0240E+06 -3.5633E-02 -1.4435E-02 -2.1501E-02  6.6667E-01  3.3333E-01
 cg2d: Sum(rhs),rhsMax =  -1.35967626047062E-14  9.22328821884147E-09
time,SST,SSS,fu,fv,Q,E-P,i0,i1,a,b =   2.9808E+06 -1.0258E-02  3.4524E+01 -2.1854E-02 -3.1503E-02  2.4933E+02  0.0000E+00     1     2  6.5000E-01  3.5000E-01
time,fu0,fu1,fu =   2.9808E+06 -3.5633E-02 -1.4435E-02 -2.1854E-02  6.5000E-01  3.5000E-01
 cg2d: Sum(rhs),rhsMax =   6.17440126804425E-14  9.37160632706095E-09
time,SST,SSS,fu,fv,Q,E-P,i0,i1,a,b =   2.9376E+06  1.4580E-02  3.4529E+01 -2.2207E-02 -3.2163E-02  2.4975E+02  0.0000E+00     1     2  6.3333E-01  3.6667E-01
time,fu0,fu1,fu =   2.9376E+06 -3.5633E-02 -1.4435E-02 -2.2207E-02  6.3333E-01  3.6667E-01
 cg2d: Sum(rhs),rhsMax =  -1.17536189114809E-14  1.00551440789814E-08
time,SST,SSS,fu,fv,Q,E-P,i0,i1,a,b =   2.8944E+06  3.9418E-02  3.4534E+01 -2.2561E-02 -3.2824E-02  2.5018E+02  0.0000E+00     1     2  6.1667E-01  3.8333E-01
time,fu0,fu1,fu =   2.8944E+06 -3.5633E-02 -1.4435E-02 -2.2561E-02  6.1667E-01  3.8333E-01
 cg2d: Sum(rhs),rhsMax =  -3.31386394020194E-16  1.17627707661680E-08
time,SST,SSS,fu,fv,Q,E-P,i0,i1,a,b =   2.8512E+06  6.4256E-02  3.4538E+01 -2.2914E-02 -3.3484E-02  2.5060E+02  0.0000E+00     1     2  6.0000E-01  4.0000E-01
time,fu0,fu1,fu =   2.8512E+06 -3.5633E-02 -1.4435E-02 -2.2914E-02  6.0000E-01  4.0000E-01
 cg2d: Sum(rhs),rhsMax =   7.36953900681847E-15  1.37666675808566E-08
(PID.TID 0000.0001)  MDSREADVECTOR: opening file: tapelev2_1_the_main_loop_gs.it0000.001.001.data
(PID.TID 0000.0001)  MDS_READ_RL_VEC: irec =  00000011   00066240
(PID.TID 0000.0001)  MDSREADVECTOR: opening file: tapelev2_2_the_main_loop_gt.it0000.001.001.data
(PID.TID 0000.0001)  MDS_READ_RL_VEC: irec =  00000011   00066240
(PID.TID 0000.0001)  MDSREADVECTOR: opening file: tapelev2_3_the_main_loop_gsnm1.it0000.001.001.data
(PID.TID 0000.0001)  MDS_READ_RL_VEC: irec =  00000011   00066240
(PID.TID 0000.0001)  MDSREADVECTOR: opening file: tapelev2_4_the_main_loop_gtnm1.it0000.001.001.data
(PID.TID 0000.0001)  MDS_READ_RL_VEC: irec =  00000011   00066240
(PID.TID 0000.0001)  MDSREADVECTOR: opening file: tapelev2_5_the_main_loop_gunm1.it0000.001.001.data
(PID.TID 0000.0001)  MDS_READ_RL_VEC: irec =  00000011   00066240
(PID.TID 0000.0001)  MDSREADVECTOR: opening file: tapelev2_6_the_main_loop_gvnm1.it0000.001.001.data
(PID.TID 0000.0001)  MDS_READ_RL_VEC: irec =  00000011   00066240
(PID.TID 0000.0001)  MDSREADVECTOR: opening file: tapelev2_7_the_main_loop_theta.it0000.001.001.data
(PID.TID 0000.0001)  MDS_READ_RL_VEC: irec =  00000011   00066240
(PID.TID 0000.0001)  MDSREADVECTOR: opening file: tapelev2_8_the_main_loop_salt.it0000.001.001.data
(PID.TID 0000.0001)  MDS_READ_RL_VEC: irec =  00000011   00066240
(PID.TID 0000.0001)  MDSREADVECTOR: opening file: tapelev2_9_the_main_loop_uvel.it0000.001.001.data
(PID.TID 0000.0001)  MDS_READ_RL_VEC: irec =  00000011   00066240
(PID.TID 0000.0001)  MDSREADVECTOR: opening file: tapelev2_10_the_main_loop_vvel.it0000.001.001.data
(PID.TID 0000.0001)  MDS_READ_RL_VEC: irec =  00000011   00066240
(PID.TID 0000.0001)  MDSREADVECTOR: opening file: tapelev2_11_the_main_loop_wvel.it0000.001.001.data
(PID.TID 0000.0001)  MDS_READ_RL_VEC: irec =  00000011   00066240
(PID.TID 0000.0001)  MDSREADVECTOR: opening file: tapelev2_12_the_main_loop_etan.it0000.001.001.data
(PID.TID 0000.0001)  MDS_READ_RL_VEC: irec =  00000011   00004416
(PID.TID 0000.0001)  MDSREADVECTOR: opening file: tapelev2_13_the_main_loop_totphihyd.it0000.001.001.data
(PID.TID 0000.0001)  MDS_READ_RL_VEC: irec =  00000011   00066240
(PID.TID 0000.0001)  MDSREADVECTOR: opening file: tapelev2_15_the_main_loop_surfaceforcingtice.it0000.001.001.data
(PID.TID 0000.0001)  MDS_READ_RL_VEC: irec =  00000011   00004416
(PID.TID 0000.0001)  MDSREADVECTOR: opening file: tapelev2_17_the_main_loop_etah.it0000.001.001.data
(PID.TID 0000.0001)  MDS_READ_RL_VEC: irec =  00000011   00004416
(PID.TID 0000.0001)  MDSREADVECTOR: opening file: tapelev2_18_the_main_loop_detahdt.it0000.001.001.data
(PID.TID 0000.0001)  MDS_READ_RL_VEC: irec =  00000011   00004416
(PID.TID 0000.0001)  MDSREADVECTOR: opening file: tapelev2_19_the_main_loop_pmepr.it0000.001.001.data
(PID.TID 0000.0001)  MDS_READ_RL_VEC: irec =  00000011   00004416
(PID.TID 0000.0001)  MDSREADVECTOR: opening file: tapelev2_20_the_main_loop_taux0.it0000.001.001.data
(PID.TID 0000.0001)  MDS_READ_RL_VEC: irec =  00000011   00004416
(PID.TID 0000.0001)  MDSREADVECTOR: opening file: tapelev2_21_the_main_loop_taux1.it0000.001.001.data
(PID.TID 0000.0001)  MDS_READ_RL_VEC: irec =  00000011   00004416
(PID.TID 0000.0001)  MDSREADVECTOR: opening file: tapelev2_22_the_main_loop_tauy0.it0000.001.001.data
(PID.TID 0000.0001)  MDS_READ_RL_VEC: irec =  00000011   00004416
(PID.TID 0000.0001)  MDSREADVECTOR: opening file: tapelev2_23_the_main_loop_tauy1.it0000.001.001.data
(PID.TID 0000.0001)  MDS_READ_RL_VEC: irec =  00000011   00004416
(PID.TID 0000.0001)  MDSREADVECTOR: opening file: tapelev2_24_the_main_loop_qnet0.it0000.001.001.data
(PID.TID 0000.0001)  MDS_READ_RL_VEC: irec =  00000011   00004416
(PID.TID 0000.0001)  MDSREADVECTOR: opening file: tapelev2_25_the_main_loop_qnet1.it0000.001.001.data
(PID.TID 0000.0001)  MDS_READ_RL_VEC: irec =  00000011   00004416
(PID.TID 0000.0001)  MDSREADVECTOR: opening file: tapelev2_26_the_main_loop_empmr0.it0000.001.001.data
(PID.TID 0000.0001)  MDS_READ_RL_VEC: irec =  00000011   00004416
(PID.TID 0000.0001)  MDSREADVECTOR: opening file: tapelev2_27_the_main_loop_empmr1.it0000.001.001.data
(PID.TID 0000.0001)  MDS_READ_RL_VEC: irec =  00000011   00004416
(PID.TID 0000.0001)  MDSREADVECTOR: opening file: tapelev2_28_the_main_loop_sst0.it0000.001.001.data
(PID.TID 0000.0001)  MDS_READ_RL_VEC: irec =  00000011   00004416
(PID.TID 0000.0001)  MDSREADVECTOR: opening file: tapelev2_29_the_main_loop_sst1.it0000.001.001.data
(PID.TID 0000.0001)  MDS_READ_RL_VEC: irec =  00000011   00004416
(PID.TID 0000.0001)  MDSREADVECTOR: opening file: tapelev2_30_the_main_loop_sss0.it0000.001.001.data
(PID.TID 0000.0001)  MDS_READ_RL_VEC: irec =  00000011   00004416
(PID.TID 0000.0001)  MDSREADVECTOR: opening file: tapelev2_31_the_main_loop_sss1.it0000.001.001.data
(PID.TID 0000.0001)  MDS_READ_RL_VEC: irec =  00000011   00004416
(PID.TID 0000.0001)  MDSREADVECTOR: opening file: tapelev2_32_the_main_loop_qsw0.it0000.001.001.data
(PID.TID 0000.0001)  MDS_READ_RL_VEC: irec =  00000011   00004416
(PID.TID 0000.0001)  MDSREADVECTOR: opening file: tapelev2_33_the_main_loop_qsw1.it0000.001.001.data
(PID.TID 0000.0001)  MDS_READ_RL_VEC: irec =  00000011   00004416
time,SST,SSS,fu,fv,Q,E-P,i0,i1,a,b =   2.5920E+06  2.1328E-01  3.4568E+01 -2.5034E-02 -3.7446E-02  2.5313E+02  0.0000E+00     1     2  5.0000E-01  5.0000E-01
time,fu0,fu1,fu =   2.5920E+06 -3.5633E-02 -1.4435E-02 -2.5034E-02  5.0000E-01  5.0000E-01
 cg2d: Sum(rhs),rhsMax =   2.58265631103427E-14  1.14474198326271E+01
(PID.TID 0000.0001)                    cg2d_init_res =    3.69684313054615E-01
(PID.TID 0000.0001)                       cg2d_iters =    24
(PID.TID 0000.0001)                         cg2d_res =    6.76381600899393E-14
time,SST,SSS,fu,fv,Q,E-P,i0,i1,a,b =   2.6352E+06  1.8845E-01  3.4563E+01 -2.4681E-02 -3.6786E-02  2.5270E+02  0.0000E+00     1     2  5.1667E-01  4.8333E-01
time,fu0,fu1,fu =   2.6352E+06 -3.5633E-02 -1.4435E-02 -2.4681E-02  5.1667E-01  4.8333E-01
 cg2d: Sum(rhs),rhsMax =  -3.47138984224671E-13  1.18834278549886E+01
(PID.TID 0000.0001)                    cg2d_init_res =    3.43510376557438E-01
(PID.TID 0000.0001)                       cg2d_iters =    24
(PID.TID 0000.0001)                         cg2d_res =    4.72055607018242E-14
time,SST,SSS,fu,fv,Q,E-P,i0,i1,a,b =   2.6784E+06  1.6361E-01  3.4558E+01 -2.4327E-02 -3.6125E-02  2.5228E+02  0.0000E+00     1     2  5.3333E-01  4.6667E-01
time,fu0,fu1,fu =   2.6784E+06 -3.5633E-02 -1.4435E-02 -2.4327E-02  5.3333E-01  4.6667E-01
 cg2d: Sum(rhs),rhsMax =   6.99579283391927E-14  1.21703387576391E+01
(PID.TID 0000.0001)                    cg2d_init_res =    3.24125026616322E-01
(PID.TID 0000.0001)                       cg2d_iters =    24
(PID.TID 0000.0001)                         cg2d_res =    4.58168230976506E-14
time,SST,SSS,fu,fv,Q,E-P,i0,i1,a,b =   2.7216E+06  1.3877E-01  3.4553E+01 -2.3974E-02 -3.5465E-02  2.5186E+02  0.0000E+00     1     2  5.5000E-01  4.5000E-01
time,fu0,fu1,fu =   2.7216E+06 -3.5633E-02 -1.4435E-02 -2.3974E-02  5.5000E-01  4.5000E-01
 cg2d: Sum(rhs),rhsMax =  -1.61079483085302E-13  1.23086917903239E+01
(PID.TID 0000.0001)                    cg2d_init_res =    3.11872196115300E-01
(PID.TID 0000.0001)                       cg2d_iters =    24
(PID.TID 0000.0001)                         cg2d_res =    5.25837189074080E-14
time,SST,SSS,fu,fv,Q,E-P,i0,i1,a,b =   2.7648E+06  1.1393E-01  3.4548E+01 -2.3621E-02 -3.4805E-02  2.5144E+02  0.0000E+00     1     2  5.6667E-01  4.3333E-01
time,fu0,fu1,fu =   2.7648E+06 -3.5633E-02 -1.4435E-02 -2.3621E-02  5.6667E-01  4.3333E-01
 cg2d: Sum(rhs),rhsMax =  -1.73056013963446E-13  1.23029134190876E+01
(PID.TID 0000.0001)                    cg2d_init_res =    3.07221079175790E-01
(PID.TID 0000.0001)                       cg2d_iters =    24
(PID.TID 0000.0001)                         cg2d_res =    4.72426814293108E-14
time,SST,SSS,fu,fv,Q,E-P,i0,i1,a,b =   2.8080E+06  8.9094E-02  3.4543E+01 -2.3267E-02 -3.4144E-02  2.5102E+02  0.0000E+00     1     2  5.8333E-01  4.1667E-01
time,fu0,fu1,fu =   2.8080E+06 -3.5633E-02 -1.4435E-02 -2.3267E-02  5.8333E-01  4.1667E-01
 cg2d: Sum(rhs),rhsMax =   4.42951231249822E-13  1.21609675813576E+01
(PID.TID 0000.0001)                    cg2d_init_res =    3.10461825755496E-01
(PID.TID 0000.0001)                       cg2d_iters =    24
(PID.TID 0000.0001)                         cg2d_res =    3.88300477230873E-14
time,SST,SSS,fu,fv,Q,E-P,i0,i1,a,b =   2.8080E+06  8.9094E-02  3.4543E+01 -2.3267E-02 -3.4144E-02  2.5102E+02  0.0000E+00     1     2  5.8333E-01  4.1667E-01
time,fu0,fu1,fu =   2.8080E+06 -3.5633E-02 -1.4435E-02 -2.3267E-02  5.8333E-01  4.1667E-01
 cg2d: Sum(rhs),rhsMax =  -1.20606649667288E-14  1.51623073711601E-08
time,SST,SSS,fu,fv,Q,E-P,i0,i1,a,b =   2.7648E+06  1.1393E-01  3.4548E+01 -2.3621E-02 -3.4805E-02  2.5144E+02  0.0000E+00     1     2  5.6667E-01  4.3333E-01
time,fu0,fu1,fu =   2.7648E+06 -3.5633E-02 -1.4435E-02 -2.3621E-02  5.6667E-01  4.3333E-01
 cg2d: Sum(rhs),rhsMax =  -1.61329283265843E-14  1.59351029810517E-08
time,SST,SSS,fu,fv,Q,E-P,i0,i1,a,b =   2.7216E+06  1.3877E-01  3.4553E+01 -2.3974E-02 -3.5465E-02  2.5186E+02  0.0000E+00     1     2  5.5000E-01  4.5000E-01
time,fu0,fu1,fu =   2.7216E+06 -3.5633E-02 -1.4435E-02 -2.3974E-02  5.5000E-01  4.5000E-01
 cg2d: Sum(rhs),rhsMax =  -6.86256607096425E-15  1.60948242975789E-08
time,SST,SSS,fu,fv,Q,E-P,i0,i1,a,b =   2.6784E+06  1.6361E-01  3.4558E+01 -2.4327E-02 -3.6125E-02  2.5228E+02  0.0000E+00     1     2  5.3333E-01  4.6667E-01
time,fu0,fu1,fu =   2.6784E+06 -3.5633E-02 -1.4435E-02 -2.4327E-02  5.3333E-01  4.6667E-01
 cg2d: Sum(rhs),rhsMax =   8.71178129635553E-15  1.56732853852783E-08
time,SST,SSS,fu,fv,Q,E-P,i0,i1,a,b =   2.6352E+06  1.8845E-01  3.4563E+01 -2.4681E-02 -3.6786E-02  2.5270E+02  0.0000E+00     1     2  5.1667E-01  4.8333E-01
time,fu0,fu1,fu =   2.6352E+06 -3.5633E-02 -1.4435E-02 -2.4681E-02  5.1667E-01  4.8333E-01
 cg2d: Sum(rhs),rhsMax =   1.94982918699793E-15  1.47223846836392E-08
time,SST,SSS,fu,fv,Q,E-P,i0,i1,a,b =   2.5920E+06  2.1328E-01  3.4568E+01 -2.5034E-02 -3.7446E-02  2.5313E+02  0.0000E+00     1     2  5.0000E-01  5.0000E-01
time,fu0,fu1,fu =   2.5920E+06 -3.5633E-02 -1.4435E-02 -2.5034E-02  5.0000E-01  5.0000E-01
 cg2d: Sum(rhs),rhsMax =  -6.61623533737554E-15  1.33084282821884E-08
(PID.TID 0000.0001)  MDSREADVECTOR: opening file: tapelev2_1_the_main_loop_gs.it0000.001.001.data
(PID.TID 0000.0001)  MDS_READ_RL_VEC: irec =  00000010   00066240
(PID.TID 0000.0001)  MDSREADVECTOR: opening file: tapelev2_2_the_main_loop_gt.it0000.001.001.data
(PID.TID 0000.0001)  MDS_READ_RL_VEC: irec =  00000010   00066240
(PID.TID 0000.0001)  MDSREADVECTOR: opening file: tapelev2_3_the_main_loop_gsnm1.it0000.001.001.data
(PID.TID 0000.0001)  MDS_READ_RL_VEC: irec =  00000010   00066240
(PID.TID 0000.0001)  MDSREADVECTOR: opening file: tapelev2_4_the_main_loop_gtnm1.it0000.001.001.data
(PID.TID 0000.0001)  MDS_READ_RL_VEC: irec =  00000010   00066240
(PID.TID 0000.0001)  MDSREADVECTOR: opening file: tapelev2_5_the_main_loop_gunm1.it0000.001.001.data
(PID.TID 0000.0001)  MDS_READ_RL_VEC: irec =  00000010   00066240
(PID.TID 0000.0001)  MDSREADVECTOR: opening file: tapelev2_6_the_main_loop_gvnm1.it0000.001.001.data
(PID.TID 0000.0001)  MDS_READ_RL_VEC: irec =  00000010   00066240
(PID.TID 0000.0001)  MDSREADVECTOR: opening file: tapelev2_7_the_main_loop_theta.it0000.001.001.data
(PID.TID 0000.0001)  MDS_READ_RL_VEC: irec =  00000010   00066240
(PID.TID 0000.0001)  MDSREADVECTOR: opening file: tapelev2_8_the_main_loop_salt.it0000.001.001.data
(PID.TID 0000.0001)  MDS_READ_RL_VEC: irec =  00000010   00066240
(PID.TID 0000.0001)  MDSREADVECTOR: opening file: tapelev2_9_the_main_loop_uvel.it0000.001.001.data
(PID.TID 0000.0001)  MDS_READ_RL_VEC: irec =  00000010   00066240
(PID.TID 0000.0001)  MDSREADVECTOR: opening file: tapelev2_10_the_main_loop_vvel.it0000.001.001.data
(PID.TID 0000.0001)  MDS_READ_RL_VEC: irec =  00000010   00066240
(PID.TID 0000.0001)  MDSREADVECTOR: opening file: tapelev2_11_the_main_loop_wvel.it0000.001.001.data
(PID.TID 0000.0001)  MDS_READ_RL_VEC: irec =  00000010   00066240
(PID.TID 0000.0001)  MDSREADVECTOR: opening file: tapelev2_12_the_main_loop_etan.it0000.001.001.data
(PID.TID 0000.0001)  MDS_READ_RL_VEC: irec =  00000010   00004416
(PID.TID 0000.0001)  MDSREADVECTOR: opening file: tapelev2_13_the_main_loop_totphihyd.it0000.001.001.data
(PID.TID 0000.0001)  MDS_READ_RL_VEC: irec =  00000010   00066240
(PID.TID 0000.0001)  MDSREADVECTOR: opening file: tapelev2_15_the_main_loop_surfaceforcingtice.it0000.001.001.data
(PID.TID 0000.0001)  MDS_READ_RL_VEC: irec =  00000010   00004416
(PID.TID 0000.0001)  MDSREADVECTOR: opening file: tapelev2_17_the_main_loop_etah.it0000.001.001.data
(PID.TID 0000.0001)  MDS_READ_RL_VEC: irec =  00000010   00004416
(PID.TID 0000.0001)  MDSREADVECTOR: opening file: tapelev2_18_the_main_loop_detahdt.it0000.001.001.data
(PID.TID 0000.0001)  MDS_READ_RL_VEC: irec =  00000010   00004416
(PID.TID 0000.0001)  MDSREADVECTOR: opening file: tapelev2_19_the_main_loop_pmepr.it0000.001.001.data
(PID.TID 0000.0001)  MDS_READ_RL_VEC: irec =  00000010   00004416
(PID.TID 0000.0001)  MDSREADVECTOR: opening file: tapelev2_20_the_main_loop_taux0.it0000.001.001.data
(PID.TID 0000.0001)  MDS_READ_RL_VEC: irec =  00000010   00004416
(PID.TID 0000.0001)  MDSREADVECTOR: opening file: tapelev2_21_the_main_loop_taux1.it0000.001.001.data
(PID.TID 0000.0001)  MDS_READ_RL_VEC: irec =  00000010   00004416
(PID.TID 0000.0001)  MDSREADVECTOR: opening file: tapelev2_22_the_main_loop_tauy0.it0000.001.001.data
(PID.TID 0000.0001)  MDS_READ_RL_VEC: irec =  00000010   00004416
(PID.TID 0000.0001)  MDSREADVECTOR: opening file: tapelev2_23_the_main_loop_tauy1.it0000.001.001.data
(PID.TID 0000.0001)  MDS_READ_RL_VEC: irec =  00000010   00004416
(PID.TID 0000.0001)  MDSREADVECTOR: opening file: tapelev2_24_the_main_loop_qnet0.it0000.001.001.data
(PID.TID 0000.0001)  MDS_READ_RL_VEC: irec =  00000010   00004416
(PID.TID 0000.0001)  MDSREADVECTOR: opening file: tapelev2_25_the_main_loop_qnet1.it0000.001.001.data
(PID.TID 0000.0001)  MDS_READ_RL_VEC: irec =  00000010   00004416
(PID.TID 0000.0001)  MDSREADVECTOR: opening file: tapelev2_26_the_main_loop_empmr0.it0000.001.001.data
(PID.TID 0000.0001)  MDS_READ_RL_VEC: irec =  00000010   00004416
(PID.TID 0000.0001)  MDSREADVECTOR: opening file: tapelev2_27_the_main_loop_empmr1.it0000.001.001.data
(PID.TID 0000.0001)  MDS_READ_RL_VEC: irec =  00000010   00004416
(PID.TID 0000.0001)  MDSREADVECTOR: opening file: tapelev2_28_the_main_loop_sst0.it0000.001.001.data
(PID.TID 0000.0001)  MDS_READ_RL_VEC: irec =  00000010   00004416
(PID.TID 0000.0001)  MDSREADVECTOR: opening file: tapelev2_29_the_main_loop_sst1.it0000.001.001.data
(PID.TID 0000.0001)  MDS_READ_RL_VEC: irec =  00000010   00004416
(PID.TID 0000.0001)  MDSREADVECTOR: opening file: tapelev2_30_the_main_loop_sss0.it0000.001.001.data
(PID.TID 0000.0001)  MDS_READ_RL_VEC: irec =  00000010   00004416
(PID.TID 0000.0001)  MDSREADVECTOR: opening file: tapelev2_31_the_main_loop_sss1.it0000.001.001.data
(PID.TID 0000.0001)  MDS_READ_RL_VEC: irec =  00000010   00004416
(PID.TID 0000.0001)  MDSREADVECTOR: opening file: tapelev2_32_the_main_loop_qsw0.it0000.001.001.data
(PID.TID 0000.0001)  MDS_READ_RL_VEC: irec =  00000010   00004416
(PID.TID 0000.0001)  MDSREADVECTOR: opening file: tapelev2_33_the_main_loop_qsw1.it0000.001.001.data
(PID.TID 0000.0001)  MDS_READ_RL_VEC: irec =  00000010   00004416
time,SST,SSS,fu,fv,Q,E-P,i0,i1,a,b =   2.3328E+06  3.6231E-01  3.4597E+01 -2.7154E-02 -4.1408E-02  2.5565E+02  0.0000E+00     1     2  4.0000E-01  6.0000E-01
time,fu0,fu1,fu =   2.3328E+06 -3.5633E-02 -1.4435E-02 -2.7154E-02  4.0000E-01  6.0000E-01
 cg2d: Sum(rhs),rhsMax =  -3.00356961524528E-13  8.20893301536877E+00
(PID.TID 0000.0001)                    cg2d_init_res =    5.74919387348592E-01
(PID.TID 0000.0001)                       cg2d_iters =    25
(PID.TID 0000.0001)                         cg2d_res =    2.53334395966005E-14
time,SST,SSS,fu,fv,Q,E-P,i0,i1,a,b =   2.3760E+06  3.3747E-01  3.4592E+01 -2.6800E-02 -4.0748E-02  2.5523E+02  0.0000E+00     1     2  4.1667E-01  5.8333E-01
time,fu0,fu1,fu =   2.3760E+06 -3.5633E-02 -1.4435E-02 -2.6800E-02  4.1667E-01  5.8333E-01
 cg2d: Sum(rhs),rhsMax =  -4.65072425015478E-13  8.29950274871825E+00
(PID.TID 0000.0001)                    cg2d_init_res =    5.66184518329940E-01
(PID.TID 0000.0001)                       cg2d_iters =    25
(PID.TID 0000.0001)                         cg2d_res =    2.50401682407801E-14
time,SST,SSS,fu,fv,Q,E-P,i0,i1,a,b =   2.4192E+06  3.1264E-01  3.4587E+01 -2.6447E-02 -4.0088E-02  2.5481E+02  0.0000E+00     1     2  4.3333E-01  5.6667E-01
time,fu0,fu1,fu =   2.4192E+06 -3.5633E-02 -1.4435E-02 -2.6447E-02  4.3333E-01  5.6667E-01
 cg2d: Sum(rhs),rhsMax =   1.45744527557667E-13  8.37678260928996E+00
(PID.TID 0000.0001)                    cg2d_init_res =    5.56435395153421E-01
(PID.TID 0000.0001)                       cg2d_iters =    25
(PID.TID 0000.0001)                         cg2d_res =    2.43338710480828E-14
time,SST,SSS,fu,fv,Q,E-P,i0,i1,a,b =   2.4624E+06  2.8780E-01  3.4582E+01 -2.6094E-02 -3.9427E-02  2.5439E+02  0.0000E+00     1     2  4.5000E-01  5.5000E-01
time,fu0,fu1,fu =   2.4624E+06 -3.5633E-02 -1.4435E-02 -2.6094E-02  4.5000E-01  5.5000E-01
 cg2d: Sum(rhs),rhsMax =   4.16333634234434E-16  9.30280280562477E+00
(PID.TID 0000.0001)                    cg2d_init_res =    4.94074532671507E-01
(PID.TID 0000.0001)                       cg2d_iters =    24
(PID.TID 0000.0001)                         cg2d_res =    9.76759112606674E-14
time,SST,SSS,fu,fv,Q,E-P,i0,i1,a,b =   2.5056E+06  2.6296E-01  3.4578E+01 -2.5740E-02 -3.8767E-02  2.5397E+02  0.0000E+00     1     2  4.6667E-01  5.3333E-01
time,fu0,fu1,fu =   2.5056E+06 -3.5633E-02 -1.4435E-02 -2.5740E-02  4.6667E-01  5.3333E-01
 cg2d: Sum(rhs),rhsMax =   4.76285677564192E-14  1.01469451490319E+01
(PID.TID 0000.0001)                    cg2d_init_res =    4.43535513623079E-01
(PID.TID 0000.0001)                       cg2d_iters =    24
(PID.TID 0000.0001)                         cg2d_res =    8.69817085970388E-14
time,SST,SSS,fu,fv,Q,E-P,i0,i1,a,b =   2.5488E+06  2.3812E-01  3.4573E+01 -2.5387E-02 -3.8106E-02  2.5355E+02  0.0000E+00     1     2  4.8333E-01  5.1667E-01
time,fu0,fu1,fu =   2.5488E+06 -3.5633E-02 -1.4435E-02 -2.5387E-02  4.8333E-01  5.1667E-01
 cg2d: Sum(rhs),rhsMax =  -3.01189628792997E-13  1.08659380191331E+01
(PID.TID 0000.0001)                    cg2d_init_res =    4.02742147104362E-01
(PID.TID 0000.0001)                       cg2d_iters =    24
(PID.TID 0000.0001)                         cg2d_res =    7.74131913593527E-14
time,SST,SSS,fu,fv,Q,E-P,i0,i1,a,b =   2.5488E+06  2.3812E-01  3.4573E+01 -2.5387E-02 -3.8106E-02  2.5355E+02  0.0000E+00     1     2  4.8333E-01  5.1667E-01
time,fu0,fu1,fu =   2.5488E+06 -3.5633E-02 -1.4435E-02 -2.5387E-02  4.8333E-01  5.1667E-01
 cg2d: Sum(rhs),rhsMax =  -9.40220123979429E-16  1.15110635858750E-08
time,SST,SSS,fu,fv,Q,E-P,i0,i1,a,b =   2.5056E+06  2.6296E-01  3.4578E+01 -2.5740E-02 -3.8767E-02  2.5397E+02  0.0000E+00     1     2  4.6667E-01  5.3333E-01
time,fu0,fu1,fu =   2.5056E+06 -3.5633E-02 -1.4435E-02 -2.5740E-02  4.6667E-01  5.3333E-01
 cg2d: Sum(rhs),rhsMax =   1.26634813746307E-15  1.15243361979091E-08
time,SST,SSS,fu,fv,Q,E-P,i0,i1,a,b =   2.4624E+06  2.8780E-01  3.4582E+01 -2.6094E-02 -3.9427E-02  2.5439E+02  0.0000E+00     1     2  4.5000E-01  5.5000E-01
time,fu0,fu1,fu =   2.4624E+06 -3.5633E-02 -1.4435E-02 -2.6094E-02  4.5000E-01  5.5000E-01
 cg2d: Sum(rhs),rhsMax =  -6.93889390390723E-15  1.19093134950626E-08
time,SST,SSS,fu,fv,Q,E-P,i0,i1,a,b =   2.4192E+06  3.1264E-01  3.4587E+01 -2.6447E-02 -4.0088E-02  2.5481E+02  0.0000E+00     1     2  4.3333E-01  5.6667E-01
time,fu0,fu1,fu =   2.4192E+06 -3.5633E-02 -1.4435E-02 -2.6447E-02  4.3333E-01  5.6667E-01
 cg2d: Sum(rhs),rhsMax =  -1.45994327738208E-14  1.20604048346418E-08
time,SST,SSS,fu,fv,Q,E-P,i0,i1,a,b =   2.3760E+06  3.3747E-01  3.4592E+01 -2.6800E-02 -4.0748E-02  2.5523E+02  0.0000E+00     1     2  4.1667E-01  5.8333E-01
time,fu0,fu1,fu =   2.3760E+06 -3.5633E-02 -1.4435E-02 -2.6800E-02  4.1667E-01  5.8333E-01
 cg2d: Sum(rhs),rhsMax =  -9.96772109296273E-15  1.22021637610993E-08
time,SST,SSS,fu,fv,Q,E-P,i0,i1,a,b =   2.3328E+06  3.6231E-01  3.4597E+01 -2.7154E-02 -4.1408E-02  2.5565E+02  0.0000E+00     1     2  4.0000E-01  6.0000E-01
time,fu0,fu1,fu =   2.3328E+06 -3.5633E-02 -1.4435E-02 -2.7154E-02  4.0000E-01  6.0000E-01
 cg2d: Sum(rhs),rhsMax =   1.79301018476963E-14  1.22737164806308E-08
(PID.TID 0000.0001)  MDSREADVECTOR: opening file: tapelev2_1_the_main_loop_gs.it0000.001.001.data
(PID.TID 0000.0001)  MDS_READ_RL_VEC: irec =  00000009   00066240
(PID.TID 0000.0001)  MDSREADVECTOR: opening file: tapelev2_2_the_main_loop_gt.it0000.001.001.data
(PID.TID 0000.0001)  MDS_READ_RL_VEC: irec =  00000009   00066240
(PID.TID 0000.0001)  MDSREADVECTOR: opening file: tapelev2_3_the_main_loop_gsnm1.it0000.001.001.data
(PID.TID 0000.0001)  MDS_READ_RL_VEC: irec =  00000009   00066240
(PID.TID 0000.0001)  MDSREADVECTOR: opening file: tapelev2_4_the_main_loop_gtnm1.it0000.001.001.data
(PID.TID 0000.0001)  MDS_READ_RL_VEC: irec =  00000009   00066240
(PID.TID 0000.0001)  MDSREADVECTOR: opening file: tapelev2_5_the_main_loop_gunm1.it0000.001.001.data
(PID.TID 0000.0001)  MDS_READ_RL_VEC: irec =  00000009   00066240
(PID.TID 0000.0001)  MDSREADVECTOR: opening file: tapelev2_6_the_main_loop_gvnm1.it0000.001.001.data
(PID.TID 0000.0001)  MDS_READ_RL_VEC: irec =  00000009   00066240
(PID.TID 0000.0001)  MDSREADVECTOR: opening file: tapelev2_7_the_main_loop_theta.it0000.001.001.data
(PID.TID 0000.0001)  MDS_READ_RL_VEC: irec =  00000009   00066240
(PID.TID 0000.0001)  MDSREADVECTOR: opening file: tapelev2_8_the_main_loop_salt.it0000.001.001.data
(PID.TID 0000.0001)  MDS_READ_RL_VEC: irec =  00000009   00066240
(PID.TID 0000.0001)  MDSREADVECTOR: opening file: tapelev2_9_the_main_loop_uvel.it0000.001.001.data
(PID.TID 0000.0001)  MDS_READ_RL_VEC: irec =  00000009   00066240
(PID.TID 0000.0001)  MDSREADVECTOR: opening file: tapelev2_10_the_main_loop_vvel.it0000.001.001.data
(PID.TID 0000.0001)  MDS_READ_RL_VEC: irec =  00000009   00066240
(PID.TID 0000.0001)  MDSREADVECTOR: opening file: tapelev2_11_the_main_loop_wvel.it0000.001.001.data
(PID.TID 0000.0001)  MDS_READ_RL_VEC: irec =  00000009   00066240
(PID.TID 0000.0001)  MDSREADVECTOR: opening file: tapelev2_12_the_main_loop_etan.it0000.001.001.data
(PID.TID 0000.0001)  MDS_READ_RL_VEC: irec =  00000009   00004416
(PID.TID 0000.0001)  MDSREADVECTOR: opening file: tapelev2_13_the_main_loop_totphihyd.it0000.001.001.data
(PID.TID 0000.0001)  MDS_READ_RL_VEC: irec =  00000009   00066240
(PID.TID 0000.0001)  MDSREADVECTOR: opening file: tapelev2_15_the_main_loop_surfaceforcingtice.it0000.001.001.data
(PID.TID 0000.0001)  MDS_READ_RL_VEC: irec =  00000009   00004416
(PID.TID 0000.0001)  MDSREADVECTOR: opening file: tapelev2_17_the_main_loop_etah.it0000.001.001.data
(PID.TID 0000.0001)  MDS_READ_RL_VEC: irec =  00000009   00004416
(PID.TID 0000.0001)  MDSREADVECTOR: opening file: tapelev2_18_the_main_loop_detahdt.it0000.001.001.data
(PID.TID 0000.0001)  MDS_READ_RL_VEC: irec =  00000009   00004416
(PID.TID 0000.0001)  MDSREADVECTOR: opening file: tapelev2_19_the_main_loop_pmepr.it0000.001.001.data
(PID.TID 0000.0001)  MDS_READ_RL_VEC: irec =  00000009   00004416
(PID.TID 0000.0001)  MDSREADVECTOR: opening file: tapelev2_20_the_main_loop_taux0.it0000.001.001.data
(PID.TID 0000.0001)  MDS_READ_RL_VEC: irec =  00000009   00004416
(PID.TID 0000.0001)  MDSREADVECTOR: opening file: tapelev2_21_the_main_loop_taux1.it0000.001.001.data
(PID.TID 0000.0001)  MDS_READ_RL_VEC: irec =  00000009   00004416
(PID.TID 0000.0001)  MDSREADVECTOR: opening file: tapelev2_22_the_main_loop_tauy0.it0000.001.001.data
(PID.TID 0000.0001)  MDS_READ_RL_VEC: irec =  00000009   00004416
(PID.TID 0000.0001)  MDSREADVECTOR: opening file: tapelev2_23_the_main_loop_tauy1.it0000.001.001.data
(PID.TID 0000.0001)  MDS_READ_RL_VEC: irec =  00000009   00004416
(PID.TID 0000.0001)  MDSREADVECTOR: opening file: tapelev2_24_the_main_loop_qnet0.it0000.001.001.data
(PID.TID 0000.0001)  MDS_READ_RL_VEC: irec =  00000009   00004416
(PID.TID 0000.0001)  MDSREADVECTOR: opening file: tapelev2_25_the_main_loop_qnet1.it0000.001.001.data
(PID.TID 0000.0001)  MDS_READ_RL_VEC: irec =  00000009   00004416
(PID.TID 0000.0001)  MDSREADVECTOR: opening file: tapelev2_26_the_main_loop_empmr0.it0000.001.001.data
(PID.TID 0000.0001)  MDS_READ_RL_VEC: irec =  00000009   00004416
(PID.TID 0000.0001)  MDSREADVECTOR: opening file: tapelev2_27_the_main_loop_empmr1.it0000.001.001.data
(PID.TID 0000.0001)  MDS_READ_RL_VEC: irec =  00000009   00004416
(PID.TID 0000.0001)  MDSREADVECTOR: opening file: tapelev2_28_the_main_loop_sst0.it0000.001.001.data
(PID.TID 0000.0001)  MDS_READ_RL_VEC: irec =  00000009   00004416
(PID.TID 0000.0001)  MDSREADVECTOR: opening file: tapelev2_29_the_main_loop_sst1.it0000.001.001.data
(PID.TID 0000.0001)  MDS_READ_RL_VEC: irec =  00000009   00004416
(PID.TID 0000.0001)  MDSREADVECTOR: opening file: tapelev2_30_the_main_loop_sss0.it0000.001.001.data
(PID.TID 0000.0001)  MDS_READ_RL_VEC: irec =  00000009   00004416
(PID.TID 0000.0001)  MDSREADVECTOR: opening file: tapelev2_31_the_main_loop_sss1.it0000.001.001.data
(PID.TID 0000.0001)  MDS_READ_RL_VEC: irec =  00000009   00004416
(PID.TID 0000.0001)  MDSREADVECTOR: opening file: tapelev2_32_the_main_loop_qsw0.it0000.001.001.data
(PID.TID 0000.0001)  MDS_READ_RL_VEC: irec =  00000009   00004416
(PID.TID 0000.0001)  MDSREADVECTOR: opening file: tapelev2_33_the_main_loop_qsw1.it0000.001.001.data
(PID.TID 0000.0001)  MDS_READ_RL_VEC: irec =  00000009   00004416
time,SST,SSS,fu,fv,Q,E-P,i0,i1,a,b =   2.0736E+06  5.1134E-01  3.4627E+01 -2.9273E-02 -4.5370E-02  2.5818E+02  0.0000E+00     1     2  3.0000E-01  7.0000E-01
time,fu0,fu1,fu =   2.0736E+06 -3.5633E-02 -1.4435E-02 -2.9273E-02  3.0000E-01  7.0000E-01
 cg2d: Sum(rhs),rhsMax =   3.88467036316342E-13  8.99099016877957E+00
(PID.TID 0000.0001)                    cg2d_init_res =    5.70825621762599E-01
(PID.TID 0000.0001)                       cg2d_iters =    24
(PID.TID 0000.0001)                         cg2d_res =    8.02879853946225E-14
time,SST,SSS,fu,fv,Q,E-P,i0,i1,a,b =   2.1168E+06  4.8650E-01  3.4622E+01 -2.8920E-02 -4.4710E-02  2.5776E+02  0.0000E+00     1     2  3.1667E-01  6.8333E-01
time,fu0,fu1,fu =   2.1168E+06 -3.5633E-02 -1.4435E-02 -2.8920E-02  3.1667E-01  6.8333E-01
 cg2d: Sum(rhs),rhsMax =  -2.00603422761958E-13  8.89940298102282E+00
(PID.TID 0000.0001)                    cg2d_init_res =    5.61903473052152E-01
(PID.TID 0000.0001)                       cg2d_iters =    24
(PID.TID 0000.0001)                         cg2d_res =    7.77826524331499E-14
time,SST,SSS,fu,fv,Q,E-P,i0,i1,a,b =   2.1600E+06  4.6166E-01  3.4617E+01 -2.8567E-02 -4.4050E-02  2.5734E+02  0.0000E+00     1     2  3.3333E-01  6.6667E-01
time,fu0,fu1,fu =   2.1600E+06 -3.5633E-02 -1.4435E-02 -2.8567E-02  3.3333E-01  6.6667E-01
 cg2d: Sum(rhs),rhsMax =   3.85913523359704E-13  8.62674625717915E+00
(PID.TID 0000.0001)                    cg2d_init_res =    5.66984032886830E-01
(PID.TID 0000.0001)                       cg2d_iters =    24
(PID.TID 0000.0001)                         cg2d_res =    6.33969912549397E-14
time,SST,SSS,fu,fv,Q,E-P,i0,i1,a,b =   2.2032E+06  4.3683E-01  3.4612E+01 -2.8214E-02 -4.3389E-02  2.5692E+02  0.0000E+00     1     2  3.5000E-01  6.5000E-01
time,fu0,fu1,fu =   2.2032E+06 -3.5633E-02 -1.4435E-02 -2.8214E-02  3.5000E-01  6.5000E-01
 cg2d: Sum(rhs),rhsMax =  -5.08204589522165E-14  8.17661275014350E+00
(PID.TID 0000.0001)                    cg2d_init_res =    5.88477129975963E-01
(PID.TID 0000.0001)                       cg2d_iters =    24
(PID.TID 0000.0001)                         cg2d_res =    8.73179960575751E-14
time,SST,SSS,fu,fv,Q,E-P,i0,i1,a,b =   2.2464E+06  4.1199E-01  3.4607E+01 -2.7860E-02 -4.2729E-02  2.5650E+02  0.0000E+00     1     2  3.6667E-01  6.3333E-01
time,fu0,fu1,fu =   2.2464E+06 -3.5633E-02 -1.4435E-02 -2.7860E-02  3.6667E-01  6.3333E-01
 cg2d: Sum(rhs),rhsMax =  -2.58112975437541E-13  7.98902779509074E+00
(PID.TID 0000.0001)                    cg2d_init_res =    5.96107259972714E-01
(PID.TID 0000.0001)                       cg2d_iters =    24
(PID.TID 0000.0001)                         cg2d_res =    9.73022268886487E-14
time,SST,SSS,fu,fv,Q,E-P,i0,i1,a,b =   2.2896E+06  3.8715E-01  3.4602E+01 -2.7507E-02 -4.2069E-02  2.5608E+02  0.0000E+00     1     2  3.8333E-01  6.1667E-01
time,fu0,fu1,fu =   2.2896E+06 -3.5633E-02 -1.4435E-02 -2.7507E-02  3.8333E-01  6.1667E-01
 cg2d: Sum(rhs),rhsMax =   2.91502932903143E-13  8.10539979254896E+00
(PID.TID 0000.0001)                    cg2d_init_res =    5.84267437828909E-01
(PID.TID 0000.0001)                       cg2d_iters =    25
(PID.TID 0000.0001)                         cg2d_res =    2.50075452202038E-14
time,SST,SSS,fu,fv,Q,E-P,i0,i1,a,b =   2.2896E+06  3.8715E-01  3.4602E+01 -2.7507E-02 -4.2069E-02  2.5608E+02  0.0000E+00     1     2  3.8333E-01  6.1667E-01
time,fu0,fu1,fu =   2.2896E+06 -3.5633E-02 -1.4435E-02 -2.7507E-02  3.8333E-01  6.1667E-01
 cg2d: Sum(rhs),rhsMax =  -1.79717352111197E-15  1.22781861769932E-08
time,SST,SSS,fu,fv,Q,E-P,i0,i1,a,b =   2.2464E+06  4.1199E-01  3.4607E+01 -2.7860E-02 -4.2729E-02  2.5650E+02  0.0000E+00     1     2  3.6667E-01  6.3333E-01
time,fu0,fu1,fu =   2.2464E+06 -3.5633E-02 -1.4435E-02 -2.7860E-02  3.6667E-01  6.3333E-01
 cg2d: Sum(rhs),rhsMax =   1.26704202685346E-14  1.22115789181790E-08
time,SST,SSS,fu,fv,Q,E-P,i0,i1,a,b =   2.2032E+06  4.3683E-01  3.4612E+01 -2.8214E-02 -4.3389E-02  2.5692E+02  0.0000E+00     1     2  3.5000E-01  6.5000E-01
time,fu0,fu1,fu =   2.2032E+06 -3.5633E-02 -1.4435E-02 -2.8214E-02  3.5000E-01  6.5000E-01
 cg2d: Sum(rhs),rhsMax =  -1.80480630440627E-14  1.21032270602676E-08
time,SST,SSS,fu,fv,Q,E-P,i0,i1,a,b =   2.1600E+06  4.6166E-01  3.4617E+01 -2.8567E-02 -4.4050E-02  2.5734E+02  0.0000E+00     1     2  3.3333E-01  6.6667E-01
time,fu0,fu1,fu =   2.1600E+06 -3.5633E-02 -1.4435E-02 -2.8567E-02  3.3333E-01  6.6667E-01
 cg2d: Sum(rhs),rhsMax =  -5.72458747072346E-15  1.21963956995785E-08
time,SST,SSS,fu,fv,Q,E-P,i0,i1,a,b =   2.1168E+06  4.8650E-01  3.4622E+01 -2.8920E-02 -4.4710E-02  2.5776E+02  0.0000E+00     1     2  3.1667E-01  6.8333E-01
time,fu0,fu1,fu =   2.1168E+06 -3.5633E-02 -1.4435E-02 -2.8920E-02  3.1667E-01  6.8333E-01
 cg2d: Sum(rhs),rhsMax =  -3.91353616180368E-15  1.30662657572417E-08
time,SST,SSS,fu,fv,Q,E-P,i0,i1,a,b =   2.0736E+06  5.1134E-01  3.4627E+01 -2.9273E-02 -4.5370E-02  2.5818E+02  0.0000E+00     1     2  3.0000E-01  7.0000E-01
time,fu0,fu1,fu =   2.0736E+06 -3.5633E-02 -1.4435E-02 -2.9273E-02  3.0000E-01  7.0000E-01
 cg2d: Sum(rhs),rhsMax =   8.31973379078477E-15  1.34581752424653E-08
(PID.TID 0000.0001)  MDSREADVECTOR: opening file: tapelev2_1_the_main_loop_gs.it0000.001.001.data
(PID.TID 0000.0001)  MDS_READ_RL_VEC: irec =  00000008   00066240
(PID.TID 0000.0001)  MDSREADVECTOR: opening file: tapelev2_2_the_main_loop_gt.it0000.001.001.data
(PID.TID 0000.0001)  MDS_READ_RL_VEC: irec =  00000008   00066240
(PID.TID 0000.0001)  MDSREADVECTOR: opening file: tapelev2_3_the_main_loop_gsnm1.it0000.001.001.data
(PID.TID 0000.0001)  MDS_READ_RL_VEC: irec =  00000008   00066240
(PID.TID 0000.0001)  MDSREADVECTOR: opening file: tapelev2_4_the_main_loop_gtnm1.it0000.001.001.data
(PID.TID 0000.0001)  MDS_READ_RL_VEC: irec =  00000008   00066240
(PID.TID 0000.0001)  MDSREADVECTOR: opening file: tapelev2_5_the_main_loop_gunm1.it0000.001.001.data
(PID.TID 0000.0001)  MDS_READ_RL_VEC: irec =  00000008   00066240
(PID.TID 0000.0001)  MDSREADVECTOR: opening file: tapelev2_6_the_main_loop_gvnm1.it0000.001.001.data
(PID.TID 0000.0001)  MDS_READ_RL_VEC: irec =  00000008   00066240
(PID.TID 0000.0001)  MDSREADVECTOR: opening file: tapelev2_7_the_main_loop_theta.it0000.001.001.data
(PID.TID 0000.0001)  MDS_READ_RL_VEC: irec =  00000008   00066240
(PID.TID 0000.0001)  MDSREADVECTOR: opening file: tapelev2_8_the_main_loop_salt.it0000.001.001.data
(PID.TID 0000.0001)  MDS_READ_RL_VEC: irec =  00000008   00066240
(PID.TID 0000.0001)  MDSREADVECTOR: opening file: tapelev2_9_the_main_loop_uvel.it0000.001.001.data
(PID.TID 0000.0001)  MDS_READ_RL_VEC: irec =  00000008   00066240
(PID.TID 0000.0001)  MDSREADVECTOR: opening file: tapelev2_10_the_main_loop_vvel.it0000.001.001.data
(PID.TID 0000.0001)  MDS_READ_RL_VEC: irec =  00000008   00066240
(PID.TID 0000.0001)  MDSREADVECTOR: opening file: tapelev2_11_the_main_loop_wvel.it0000.001.001.data
(PID.TID 0000.0001)  MDS_READ_RL_VEC: irec =  00000008   00066240
(PID.TID 0000.0001)  MDSREADVECTOR: opening file: tapelev2_12_the_main_loop_etan.it0000.001.001.data
(PID.TID 0000.0001)  MDS_READ_RL_VEC: irec =  00000008   00004416
(PID.TID 0000.0001)  MDSREADVECTOR: opening file: tapelev2_13_the_main_loop_totphihyd.it0000.001.001.data
(PID.TID 0000.0001)  MDS_READ_RL_VEC: irec =  00000008   00066240
(PID.TID 0000.0001)  MDSREADVECTOR: opening file: tapelev2_15_the_main_loop_surfaceforcingtice.it0000.001.001.data
(PID.TID 0000.0001)  MDS_READ_RL_VEC: irec =  00000008   00004416
(PID.TID 0000.0001)  MDSREADVECTOR: opening file: tapelev2_17_the_main_loop_etah.it0000.001.001.data
(PID.TID 0000.0001)  MDS_READ_RL_VEC: irec =  00000008   00004416
(PID.TID 0000.0001)  MDSREADVECTOR: opening file: tapelev2_18_the_main_loop_detahdt.it0000.001.001.data
(PID.TID 0000.0001)  MDS_READ_RL_VEC: irec =  00000008   00004416
(PID.TID 0000.0001)  MDSREADVECTOR: opening file: tapelev2_19_the_main_loop_pmepr.it0000.001.001.data
(PID.TID 0000.0001)  MDS_READ_RL_VEC: irec =  00000008   00004416
(PID.TID 0000.0001)  MDSREADVECTOR: opening file: tapelev2_20_the_main_loop_taux0.it0000.001.001.data
(PID.TID 0000.0001)  MDS_READ_RL_VEC: irec =  00000008   00004416
(PID.TID 0000.0001)  MDSREADVECTOR: opening file: tapelev2_21_the_main_loop_taux1.it0000.001.001.data
(PID.TID 0000.0001)  MDS_READ_RL_VEC: irec =  00000008   00004416
(PID.TID 0000.0001)  MDSREADVECTOR: opening file: tapelev2_22_the_main_loop_tauy0.it0000.001.001.data
(PID.TID 0000.0001)  MDS_READ_RL_VEC: irec =  00000008   00004416
(PID.TID 0000.0001)  MDSREADVECTOR: opening file: tapelev2_23_the_main_loop_tauy1.it0000.001.001.data
(PID.TID 0000.0001)  MDS_READ_RL_VEC: irec =  00000008   00004416
(PID.TID 0000.0001)  MDSREADVECTOR: opening file: tapelev2_24_the_main_loop_qnet0.it0000.001.001.data
(PID.TID 0000.0001)  MDS_READ_RL_VEC: irec =  00000008   00004416
(PID.TID 0000.0001)  MDSREADVECTOR: opening file: tapelev2_25_the_main_loop_qnet1.it0000.001.001.data
(PID.TID 0000.0001)  MDS_READ_RL_VEC: irec =  00000008   00004416
(PID.TID 0000.0001)  MDSREADVECTOR: opening file: tapelev2_26_the_main_loop_empmr0.it0000.001.001.data
(PID.TID 0000.0001)  MDS_READ_RL_VEC: irec =  00000008   00004416
(PID.TID 0000.0001)  MDSREADVECTOR: opening file: tapelev2_27_the_main_loop_empmr1.it0000.001.001.data
(PID.TID 0000.0001)  MDS_READ_RL_VEC: irec =  00000008   00004416
(PID.TID 0000.0001)  MDSREADVECTOR: opening file: tapelev2_28_the_main_loop_sst0.it0000.001.001.data
(PID.TID 0000.0001)  MDS_READ_RL_VEC: irec =  00000008   00004416
(PID.TID 0000.0001)  MDSREADVECTOR: opening file: tapelev2_29_the_main_loop_sst1.it0000.001.001.data
(PID.TID 0000.0001)  MDS_READ_RL_VEC: irec =  00000008   00004416
(PID.TID 0000.0001)  MDSREADVECTOR: opening file: tapelev2_30_the_main_loop_sss0.it0000.001.001.data
(PID.TID 0000.0001)  MDS_READ_RL_VEC: irec =  00000008   00004416
(PID.TID 0000.0001)  MDSREADVECTOR: opening file: tapelev2_31_the_main_loop_sss1.it0000.001.001.data
(PID.TID 0000.0001)  MDS_READ_RL_VEC: irec =  00000008   00004416
(PID.TID 0000.0001)  MDSREADVECTOR: opening file: tapelev2_32_the_main_loop_qsw0.it0000.001.001.data
(PID.TID 0000.0001)  MDS_READ_RL_VEC: irec =  00000008   00004416
(PID.TID 0000.0001)  MDSREADVECTOR: opening file: tapelev2_33_the_main_loop_qsw1.it0000.001.001.data
(PID.TID 0000.0001)  MDS_READ_RL_VEC: irec =  00000008   00004416
time,SST,SSS,fu,fv,Q,E-P,i0,i1,a,b =   1.8144E+06  6.6037E-01  3.4656E+01 -3.1393E-02 -4.9332E-02  2.6071E+02  0.0000E+00     1     2  2.0000E-01  8.0000E-01
time,fu0,fu1,fu =   1.8144E+06 -3.5633E-02 -1.4435E-02 -3.1393E-02  2.0000E-01  8.0000E-01
 cg2d: Sum(rhs),rhsMax =   4.34166591567475E-13  7.68469225012547E+00
(PID.TID 0000.0001)                    cg2d_init_res =    7.41331539977257E-01
(PID.TID 0000.0001)                       cg2d_iters =    25
(PID.TID 0000.0001)                         cg2d_res =    4.26677709895171E-14
time,SST,SSS,fu,fv,Q,E-P,i0,i1,a,b =   1.8576E+06  6.3553E-01  3.4651E+01 -3.1040E-02 -4.8672E-02  2.6029E+02  0.0000E+00     1     2  2.1667E-01  7.8333E-01
time,fu0,fu1,fu =   1.8576E+06 -3.5633E-02 -1.4435E-02 -3.1040E-02  2.1667E-01  7.8333E-01
 cg2d: Sum(rhs),rhsMax =   2.94195223737859E-13  7.71510904649464E+00
(PID.TID 0000.0001)                    cg2d_init_res =    7.34299222106869E-01
(PID.TID 0000.0001)                       cg2d_iters =    25
(PID.TID 0000.0001)                         cg2d_res =    3.89604504510856E-14
time,SST,SSS,fu,fv,Q,E-P,i0,i1,a,b =   1.9008E+06  6.1069E-01  3.4646E+01 -3.0687E-02 -4.8012E-02  2.5987E+02  0.0000E+00     1     2  2.3333E-01  7.6667E-01
time,fu0,fu1,fu =   1.9008E+06 -3.5633E-02 -1.4435E-02 -3.0687E-02  2.3333E-01  7.6667E-01
 cg2d: Sum(rhs),rhsMax =   1.34614541735800E-13  7.94458113352408E+00
(PID.TID 0000.0001)                    cg2d_init_res =    7.06079108937279E-01
(PID.TID 0000.0001)                       cg2d_iters =    25
(PID.TID 0000.0001)                         cg2d_res =    3.40411682974403E-14
time,SST,SSS,fu,fv,Q,E-P,i0,i1,a,b =   1.9440E+06  5.8585E-01  3.4641E+01 -3.0333E-02 -4.7351E-02  2.5945E+02  0.0000E+00     1     2  2.5000E-01  7.5000E-01
time,fu0,fu1,fu =   1.9440E+06 -3.5633E-02 -1.4435E-02 -3.0333E-02  2.5000E-01  7.5000E-01
 cg2d: Sum(rhs),rhsMax =  -9.75608482889356E-15  8.35758900805885E+00
(PID.TID 0000.0001)                    cg2d_init_res =    6.60858939570338E-01
(PID.TID 0000.0001)                       cg2d_iters =    25
(PID.TID 0000.0001)                         cg2d_res =    2.85049817945568E-14
time,SST,SSS,fu,fv,Q,E-P,i0,i1,a,b =   1.9872E+06  5.6102E-01  3.4636E+01 -2.9980E-02 -4.6691E-02  2.5903E+02  0.0000E+00     1     2  2.6667E-01  7.3333E-01
time,fu0,fu1,fu =   1.9872E+06 -3.5633E-02 -1.4435E-02 -2.9980E-02  2.6667E-01  7.3333E-01
 cg2d: Sum(rhs),rhsMax =   1.81049619740747E-13  8.64096094865015E+00
(PID.TID 0000.0001)                    cg2d_init_res =    6.25865011903459E-01
(PID.TID 0000.0001)                       cg2d_iters =    24
(PID.TID 0000.0001)                         cg2d_res =    9.94424331212307E-14
time,SST,SSS,fu,fv,Q,E-P,i0,i1,a,b =   2.0304E+06  5.3618E-01  3.4631E+01 -2.9627E-02 -4.6031E-02  2.5861E+02  0.0000E+00     1     2  2.8333E-01  7.1667E-01
time,fu0,fu1,fu =   2.0304E+06 -3.5633E-02 -1.4435E-02 -2.9627E-02  2.8333E-01  7.1667E-01
 cg2d: Sum(rhs),rhsMax =   4.28823643261467E-15  8.90282406586782E+00
(PID.TID 0000.0001)                    cg2d_init_res =    5.92306224192805E-01
(PID.TID 0000.0001)                       cg2d_iters =    24
(PID.TID 0000.0001)                         cg2d_res =    8.09487812904797E-14
time,SST,SSS,fu,fv,Q,E-P,i0,i1,a,b =   2.0304E+06  5.3618E-01  3.4631E+01 -2.9627E-02 -4.6031E-02  2.5861E+02  0.0000E+00     1     2  2.8333E-01  7.1667E-01
time,fu0,fu1,fu =   2.0304E+06 -3.5633E-02 -1.4435E-02 -2.9627E-02  2.8333E-01  7.1667E-01
 cg2d: Sum(rhs),rhsMax =   5.82867087928207E-16  1.33727236623699E-08
time,SST,SSS,fu,fv,Q,E-P,i0,i1,a,b =   1.9872E+06  5.6102E-01  3.4636E+01 -2.9980E-02 -4.6691E-02  2.5903E+02  0.0000E+00     1     2  2.6667E-01  7.3333E-01
time,fu0,fu1,fu =   1.9872E+06 -3.5633E-02 -1.4435E-02 -2.9980E-02  2.6667E-01  7.3333E-01
 cg2d: Sum(rhs),rhsMax =   6.81399381363690E-15  1.28307782593790E-08
time,SST,SSS,fu,fv,Q,E-P,i0,i1,a,b =   1.9440E+06  5.8585E-01  3.4641E+01 -3.0333E-02 -4.7351E-02  2.5945E+02  0.0000E+00     1     2  2.5000E-01  7.5000E-01
time,fu0,fu1,fu =   1.9440E+06 -3.5633E-02 -1.4435E-02 -3.0333E-02  2.5000E-01  7.5000E-01
 cg2d: Sum(rhs),rhsMax =   1.19418364086243E-14  1.18713044177627E-08
time,SST,SSS,fu,fv,Q,E-P,i0,i1,a,b =   1.9008E+06  6.1069E-01  3.4646E+01 -3.0687E-02 -4.8012E-02  2.5987E+02  0.0000E+00     1     2  2.3333E-01  7.6667E-01
time,fu0,fu1,fu =   1.9008E+06 -3.5633E-02 -1.4435E-02 -3.0687E-02  2.3333E-01  7.6667E-01
 cg2d: Sum(rhs),rhsMax =   5.41233724504764E-15  1.09709407909979E-08
time,SST,SSS,fu,fv,Q,E-P,i0,i1,a,b =   1.8576E+06  6.3553E-01  3.4651E+01 -3.1040E-02 -4.8672E-02  2.6029E+02  0.0000E+00     1     2  2.1667E-01  7.8333E-01
time,fu0,fu1,fu =   1.8576E+06 -3.5633E-02 -1.4435E-02 -3.1040E-02  2.1667E-01  7.8333E-01
 cg2d: Sum(rhs),rhsMax =  -8.15320033709099E-15  1.09864587594297E-08
time,SST,SSS,fu,fv,Q,E-P,i0,i1,a,b =   1.8144E+06  6.6037E-01  3.4656E+01 -3.1393E-02 -4.9332E-02  2.6071E+02  0.0000E+00     1     2  2.0000E-01  8.0000E-01
time,fu0,fu1,fu =   1.8144E+06 -3.5633E-02 -1.4435E-02 -3.1393E-02  2.0000E-01  8.0000E-01
 cg2d: Sum(rhs),rhsMax =   2.37379560452666E-14  1.06967436366200E-08
(PID.TID 0000.0001)  MDSREADVECTOR: opening file: tapelev2_1_the_main_loop_gs.it0000.001.001.data
(PID.TID 0000.0001)  MDS_READ_RL_VEC: irec =  00000007   00066240
(PID.TID 0000.0001)  MDSREADVECTOR: opening file: tapelev2_2_the_main_loop_gt.it0000.001.001.data
(PID.TID 0000.0001)  MDS_READ_RL_VEC: irec =  00000007   00066240
(PID.TID 0000.0001)  MDSREADVECTOR: opening file: tapelev2_3_the_main_loop_gsnm1.it0000.001.001.data
(PID.TID 0000.0001)  MDS_READ_RL_VEC: irec =  00000007   00066240
(PID.TID 0000.0001)  MDSREADVECTOR: opening file: tapelev2_4_the_main_loop_gtnm1.it0000.001.001.data
(PID.TID 0000.0001)  MDS_READ_RL_VEC: irec =  00000007   00066240
(PID.TID 0000.0001)  MDSREADVECTOR: opening file: tapelev2_5_the_main_loop_gunm1.it0000.001.001.data
(PID.TID 0000.0001)  MDS_READ_RL_VEC: irec =  00000007   00066240
(PID.TID 0000.0001)  MDSREADVECTOR: opening file: tapelev2_6_the_main_loop_gvnm1.it0000.001.001.data
(PID.TID 0000.0001)  MDS_READ_RL_VEC: irec =  00000007   00066240
(PID.TID 0000.0001)  MDSREADVECTOR: opening file: tapelev2_7_the_main_loop_theta.it0000.001.001.data
(PID.TID 0000.0001)  MDS_READ_RL_VEC: irec =  00000007   00066240
(PID.TID 0000.0001)  MDSREADVECTOR: opening file: tapelev2_8_the_main_loop_salt.it0000.001.001.data
(PID.TID 0000.0001)  MDS_READ_RL_VEC: irec =  00000007   00066240
(PID.TID 0000.0001)  MDSREADVECTOR: opening file: tapelev2_9_the_main_loop_uvel.it0000.001.001.data
(PID.TID 0000.0001)  MDS_READ_RL_VEC: irec =  00000007   00066240
(PID.TID 0000.0001)  MDSREADVECTOR: opening file: tapelev2_10_the_main_loop_vvel.it0000.001.001.data
(PID.TID 0000.0001)  MDS_READ_RL_VEC: irec =  00000007   00066240
(PID.TID 0000.0001)  MDSREADVECTOR: opening file: tapelev2_11_the_main_loop_wvel.it0000.001.001.data
(PID.TID 0000.0001)  MDS_READ_RL_VEC: irec =  00000007   00066240
(PID.TID 0000.0001)  MDSREADVECTOR: opening file: tapelev2_12_the_main_loop_etan.it0000.001.001.data
(PID.TID 0000.0001)  MDS_READ_RL_VEC: irec =  00000007   00004416
(PID.TID 0000.0001)  MDSREADVECTOR: opening file: tapelev2_13_the_main_loop_totphihyd.it0000.001.001.data
(PID.TID 0000.0001)  MDS_READ_RL_VEC: irec =  00000007   00066240
(PID.TID 0000.0001)  MDSREADVECTOR: opening file: tapelev2_15_the_main_loop_surfaceforcingtice.it0000.001.001.data
(PID.TID 0000.0001)  MDS_READ_RL_VEC: irec =  00000007   00004416
(PID.TID 0000.0001)  MDSREADVECTOR: opening file: tapelev2_17_the_main_loop_etah.it0000.001.001.data
(PID.TID 0000.0001)  MDS_READ_RL_VEC: irec =  00000007   00004416
(PID.TID 0000.0001)  MDSREADVECTOR: opening file: tapelev2_18_the_main_loop_detahdt.it0000.001.001.data
(PID.TID 0000.0001)  MDS_READ_RL_VEC: irec =  00000007   00004416
(PID.TID 0000.0001)  MDSREADVECTOR: opening file: tapelev2_19_the_main_loop_pmepr.it0000.001.001.data
(PID.TID 0000.0001)  MDS_READ_RL_VEC: irec =  00000007   00004416
(PID.TID 0000.0001)  MDSREADVECTOR: opening file: tapelev2_20_the_main_loop_taux0.it0000.001.001.data
(PID.TID 0000.0001)  MDS_READ_RL_VEC: irec =  00000007   00004416
(PID.TID 0000.0001)  MDSREADVECTOR: opening file: tapelev2_21_the_main_loop_taux1.it0000.001.001.data
(PID.TID 0000.0001)  MDS_READ_RL_VEC: irec =  00000007   00004416
(PID.TID 0000.0001)  MDSREADVECTOR: opening file: tapelev2_22_the_main_loop_tauy0.it0000.001.001.data
(PID.TID 0000.0001)  MDS_READ_RL_VEC: irec =  00000007   00004416
(PID.TID 0000.0001)  MDSREADVECTOR: opening file: tapelev2_23_the_main_loop_tauy1.it0000.001.001.data
(PID.TID 0000.0001)  MDS_READ_RL_VEC: irec =  00000007   00004416
(PID.TID 0000.0001)  MDSREADVECTOR: opening file: tapelev2_24_the_main_loop_qnet0.it0000.001.001.data
(PID.TID 0000.0001)  MDS_READ_RL_VEC: irec =  00000007   00004416
(PID.TID 0000.0001)  MDSREADVECTOR: opening file: tapelev2_25_the_main_loop_qnet1.it0000.001.001.data
(PID.TID 0000.0001)  MDS_READ_RL_VEC: irec =  00000007   00004416
(PID.TID 0000.0001)  MDSREADVECTOR: opening file: tapelev2_26_the_main_loop_empmr0.it0000.001.001.data
(PID.TID 0000.0001)  MDS_READ_RL_VEC: irec =  00000007   00004416
(PID.TID 0000.0001)  MDSREADVECTOR: opening file: tapelev2_27_the_main_loop_empmr1.it0000.001.001.data
(PID.TID 0000.0001)  MDS_READ_RL_VEC: irec =  00000007   00004416
(PID.TID 0000.0001)  MDSREADVECTOR: opening file: tapelev2_28_the_main_loop_sst0.it0000.001.001.data
(PID.TID 0000.0001)  MDS_READ_RL_VEC: irec =  00000007   00004416
(PID.TID 0000.0001)  MDSREADVECTOR: opening file: tapelev2_29_the_main_loop_sst1.it0000.001.001.data
(PID.TID 0000.0001)  MDS_READ_RL_VEC: irec =  00000007   00004416
(PID.TID 0000.0001)  MDSREADVECTOR: opening file: tapelev2_30_the_main_loop_sss0.it0000.001.001.data
(PID.TID 0000.0001)  MDS_READ_RL_VEC: irec =  00000007   00004416
(PID.TID 0000.0001)  MDSREADVECTOR: opening file: tapelev2_31_the_main_loop_sss1.it0000.001.001.data
(PID.TID 0000.0001)  MDS_READ_RL_VEC: irec =  00000007   00004416
(PID.TID 0000.0001)  MDSREADVECTOR: opening file: tapelev2_32_the_main_loop_qsw0.it0000.001.001.data
(PID.TID 0000.0001)  MDS_READ_RL_VEC: irec =  00000007   00004416
(PID.TID 0000.0001)  MDSREADVECTOR: opening file: tapelev2_33_the_main_loop_qsw1.it0000.001.001.data
(PID.TID 0000.0001)  MDS_READ_RL_VEC: irec =  00000007   00004416
time,SST,SSS,fu,fv,Q,E-P,i0,i1,a,b =   1.5552E+06  8.0940E-01  3.4685E+01 -3.3513E-02 -5.3295E-02  2.6324E+02  0.0000E+00     1     2  1.0000E-01  9.0000E-01
time,fu0,fu1,fu =   1.5552E+06 -3.5633E-02 -1.4435E-02 -3.3513E-02  1.0000E-01  9.0000E-01
 cg2d: Sum(rhs),rhsMax =   2.09464390277248E-13  1.02380208453540E+01
(PID.TID 0000.0001)                    cg2d_init_res =    6.16439655321187E-01
(PID.TID 0000.0001)                       cg2d_iters =    25
(PID.TID 0000.0001)                         cg2d_res =    3.81959122432533E-14
time,SST,SSS,fu,fv,Q,E-P,i0,i1,a,b =   1.5984E+06  7.8456E-01  3.4680E+01 -3.3160E-02 -5.2634E-02  2.6282E+02  0.0000E+00     1     2  1.1667E-01  8.8333E-01
time,fu0,fu1,fu =   1.5984E+06 -3.5633E-02 -1.4435E-02 -3.3160E-02  1.1667E-01  8.8333E-01
 cg2d: Sum(rhs),rhsMax =   1.27391153181833E-13  9.99413307526834E+00
(PID.TID 0000.0001)                    cg2d_init_res =    6.10424502280089E-01
(PID.TID 0000.0001)                       cg2d_iters =    25
(PID.TID 0000.0001)                         cg2d_res =    3.93399285610672E-14
time,SST,SSS,fu,fv,Q,E-P,i0,i1,a,b =   1.6416E+06  7.5972E-01  3.4675E+01 -3.2807E-02 -5.1974E-02  2.6240E+02  0.0000E+00     1     2  1.3333E-01  8.6667E-01
time,fu0,fu1,fu =   1.6416E+06 -3.5633E-02 -1.4435E-02 -3.2807E-02  1.3333E-01  8.6667E-01
 cg2d: Sum(rhs),rhsMax =   2.29295749054614E-13  9.65836288960803E+00
(PID.TID 0000.0001)                    cg2d_init_res =    6.14347671095455E-01
(PID.TID 0000.0001)                       cg2d_iters =    25
(PID.TID 0000.0001)                         cg2d_res =    4.03565581415954E-14
time,SST,SSS,fu,fv,Q,E-P,i0,i1,a,b =   1.6848E+06  7.3488E-01  3.4671E+01 -3.2453E-02 -5.1313E-02  2.6198E+02  0.0000E+00     1     2  1.5000E-01  8.5000E-01
time,fu0,fu1,fu =   1.6848E+06 -3.5633E-02 -1.4435E-02 -3.2453E-02  1.5000E-01  8.5000E-01
 cg2d: Sum(rhs),rhsMax =  -7.15955073005148E-14  9.23489431210911E+00
(PID.TID 0000.0001)                    cg2d_init_res =    6.30132621173186E-01
(PID.TID 0000.0001)                       cg2d_iters =    25
(PID.TID 0000.0001)                         cg2d_res =    4.13422161600659E-14
time,SST,SSS,fu,fv,Q,E-P,i0,i1,a,b =   1.7280E+06  7.1005E-01  3.4666E+01 -3.2100E-02 -5.0653E-02  2.6156E+02  0.0000E+00     1     2  1.6667E-01  8.3333E-01
time,fu0,fu1,fu =   1.7280E+06 -3.5633E-02 -1.4435E-02 -3.2100E-02  1.6667E-01  8.3333E-01
 cg2d: Sum(rhs),rhsMax =   8.67361737988404E-14  8.72915944336034E+00
(PID.TID 0000.0001)                    cg2d_init_res =    6.59061085241767E-01
(PID.TID 0000.0001)                       cg2d_iters =    25
(PID.TID 0000.0001)                         cg2d_res =    4.22749859015876E-14
time,SST,SSS,fu,fv,Q,E-P,i0,i1,a,b =   1.7712E+06  6.8521E-01  3.4661E+01 -3.1747E-02 -4.9993E-02  2.6113E+02  0.0000E+00     1     2  1.8333E-01  8.1667E-01
time,fu0,fu1,fu =   1.7712E+06 -3.5633E-02 -1.4435E-02 -3.1747E-02  1.8333E-01  8.1667E-01
 cg2d: Sum(rhs),rhsMax =  -2.89004931097736E-13  8.14764791556401E+00
(PID.TID 0000.0001)                    cg2d_init_res =    7.01965840592900E-01
(PID.TID 0000.0001)                       cg2d_iters =    25
(PID.TID 0000.0001)                         cg2d_res =    4.30791737600664E-14
time,SST,SSS,fu,fv,Q,E-P,i0,i1,a,b =   1.7712E+06  6.8521E-01  3.4661E+01 -3.1747E-02 -4.9993E-02  2.6113E+02  0.0000E+00     1     2  1.8333E-01  8.1667E-01
time,fu0,fu1,fu =   1.7712E+06 -3.5633E-02 -1.4435E-02 -3.1747E-02  1.8333E-01  8.1667E-01
 cg2d: Sum(rhs),rhsMax =  -8.50708392619026E-15  1.01120552522977E-08
time,SST,SSS,fu,fv,Q,E-P,i0,i1,a,b =   1.7280E+06  7.1005E-01  3.4666E+01 -3.2100E-02 -5.0653E-02  2.6156E+02  0.0000E+00     1     2  1.6667E-01  8.3333E-01
time,fu0,fu1,fu =   1.7280E+06 -3.5633E-02 -1.4435E-02 -3.2100E-02  1.6667E-01  8.3333E-01
 cg2d: Sum(rhs),rhsMax =   2.56739074444567E-16  9.25273938985741E-09
time,SST,SSS,fu,fv,Q,E-P,i0,i1,a,b =   1.6848E+06  7.3488E-01  3.4671E+01 -3.2453E-02 -5.1313E-02  2.6198E+02  0.0000E+00     1     2  1.5000E-01  8.5000E-01
time,fu0,fu1,fu =   1.6848E+06 -3.5633E-02 -1.4435E-02 -3.2453E-02  1.5000E-01  8.5000E-01
 cg2d: Sum(rhs),rhsMax =   1.86031745563753E-14  8.91387045279336E-09
time,SST,SSS,fu,fv,Q,E-P,i0,i1,a,b =   1.6416E+06  7.5972E-01  3.4675E+01 -3.2807E-02 -5.1974E-02  2.6240E+02  0.0000E+00     1     2  1.3333E-01  8.6667E-01
time,fu0,fu1,fu =   1.6416E+06 -3.5633E-02 -1.4435E-02 -3.2807E-02  1.3333E-01  8.6667E-01
 cg2d: Sum(rhs),rhsMax =  -2.44942954807925E-15  8.99094066882946E-09
time,SST,SSS,fu,fv,Q,E-P,i0,i1,a,b =   1.5984E+06  7.8456E-01  3.4680E+01 -3.3160E-02 -5.2634E-02  2.6282E+02  0.0000E+00     1     2  1.1667E-01  8.8333E-01
time,fu0,fu1,fu =   1.5984E+06 -3.5633E-02 -1.4435E-02 -3.3160E-02  1.1667E-01  8.8333E-01
 cg2d: Sum(rhs),rhsMax =  -2.05564731903252E-15  8.89995087662892E-09
time,SST,SSS,fu,fv,Q,E-P,i0,i1,a,b =   1.5552E+06  8.0940E-01  3.4685E+01 -3.3513E-02 -5.3295E-02  2.6324E+02  0.0000E+00     1     2  1.0000E-01  9.0000E-01
time,fu0,fu1,fu =   1.5552E+06 -3.5633E-02 -1.4435E-02 -3.3513E-02  1.0000E-01  9.0000E-01
 cg2d: Sum(rhs),rhsMax =   8.61637150517680E-15  8.71924080376015E-09
(PID.TID 0000.0001)  MDSREADVECTOR: opening file: tapelev2_1_the_main_loop_gs.it0000.001.001.data
(PID.TID 0000.0001)  MDS_READ_RL_VEC: irec =  00000006   00066240
(PID.TID 0000.0001)  MDSREADVECTOR: opening file: tapelev2_2_the_main_loop_gt.it0000.001.001.data
(PID.TID 0000.0001)  MDS_READ_RL_VEC: irec =  00000006   00066240
(PID.TID 0000.0001)  MDSREADVECTOR: opening file: tapelev2_3_the_main_loop_gsnm1.it0000.001.001.data
(PID.TID 0000.0001)  MDS_READ_RL_VEC: irec =  00000006   00066240
(PID.TID 0000.0001)  MDSREADVECTOR: opening file: tapelev2_4_the_main_loop_gtnm1.it0000.001.001.data
(PID.TID 0000.0001)  MDS_READ_RL_VEC: irec =  00000006   00066240
(PID.TID 0000.0001)  MDSREADVECTOR: opening file: tapelev2_5_the_main_loop_gunm1.it0000.001.001.data
(PID.TID 0000.0001)  MDS_READ_RL_VEC: irec =  00000006   00066240
(PID.TID 0000.0001)  MDSREADVECTOR: opening file: tapelev2_6_the_main_loop_gvnm1.it0000.001.001.data
(PID.TID 0000.0001)  MDS_READ_RL_VEC: irec =  00000006   00066240
(PID.TID 0000.0001)  MDSREADVECTOR: opening file: tapelev2_7_the_main_loop_theta.it0000.001.001.data
(PID.TID 0000.0001)  MDS_READ_RL_VEC: irec =  00000006   00066240
(PID.TID 0000.0001)  MDSREADVECTOR: opening file: tapelev2_8_the_main_loop_salt.it0000.001.001.data
(PID.TID 0000.0001)  MDS_READ_RL_VEC: irec =  00000006   00066240
(PID.TID 0000.0001)  MDSREADVECTOR: opening file: tapelev2_9_the_main_loop_uvel.it0000.001.001.data
(PID.TID 0000.0001)  MDS_READ_RL_VEC: irec =  00000006   00066240
(PID.TID 0000.0001)  MDSREADVECTOR: opening file: tapelev2_10_the_main_loop_vvel.it0000.001.001.data
(PID.TID 0000.0001)  MDS_READ_RL_VEC: irec =  00000006   00066240
(PID.TID 0000.0001)  MDSREADVECTOR: opening file: tapelev2_11_the_main_loop_wvel.it0000.001.001.data
(PID.TID 0000.0001)  MDS_READ_RL_VEC: irec =  00000006   00066240
(PID.TID 0000.0001)  MDSREADVECTOR: opening file: tapelev2_12_the_main_loop_etan.it0000.001.001.data
(PID.TID 0000.0001)  MDS_READ_RL_VEC: irec =  00000006   00004416
(PID.TID 0000.0001)  MDSREADVECTOR: opening file: tapelev2_13_the_main_loop_totphihyd.it0000.001.001.data
(PID.TID 0000.0001)  MDS_READ_RL_VEC: irec =  00000006   00066240
(PID.TID 0000.0001)  MDSREADVECTOR: opening file: tapelev2_15_the_main_loop_surfaceforcingtice.it0000.001.001.data
(PID.TID 0000.0001)  MDS_READ_RL_VEC: irec =  00000006   00004416
(PID.TID 0000.0001)  MDSREADVECTOR: opening file: tapelev2_17_the_main_loop_etah.it0000.001.001.data
(PID.TID 0000.0001)  MDS_READ_RL_VEC: irec =  00000006   00004416
(PID.TID 0000.0001)  MDSREADVECTOR: opening file: tapelev2_18_the_main_loop_detahdt.it0000.001.001.data
(PID.TID 0000.0001)  MDS_READ_RL_VEC: irec =  00000006   00004416
(PID.TID 0000.0001)  MDSREADVECTOR: opening file: tapelev2_19_the_main_loop_pmepr.it0000.001.001.data
(PID.TID 0000.0001)  MDS_READ_RL_VEC: irec =  00000006   00004416
(PID.TID 0000.0001)  MDSREADVECTOR: opening file: tapelev2_20_the_main_loop_taux0.it0000.001.001.data
(PID.TID 0000.0001)  MDS_READ_RL_VEC: irec =  00000006   00004416
(PID.TID 0000.0001)  MDSREADVECTOR: opening file: tapelev2_21_the_main_loop_taux1.it0000.001.001.data
(PID.TID 0000.0001)  MDS_READ_RL_VEC: irec =  00000006   00004416
(PID.TID 0000.0001)  MDSREADVECTOR: opening file: tapelev2_22_the_main_loop_tauy0.it0000.001.001.data
(PID.TID 0000.0001)  MDS_READ_RL_VEC: irec =  00000006   00004416
(PID.TID 0000.0001)  MDSREADVECTOR: opening file: tapelev2_23_the_main_loop_tauy1.it0000.001.001.data
(PID.TID 0000.0001)  MDS_READ_RL_VEC: irec =  00000006   00004416
(PID.TID 0000.0001)  MDSREADVECTOR: opening file: tapelev2_24_the_main_loop_qnet0.it0000.001.001.data
(PID.TID 0000.0001)  MDS_READ_RL_VEC: irec =  00000006   00004416
(PID.TID 0000.0001)  MDSREADVECTOR: opening file: tapelev2_25_the_main_loop_qnet1.it0000.001.001.data
(PID.TID 0000.0001)  MDS_READ_RL_VEC: irec =  00000006   00004416
(PID.TID 0000.0001)  MDSREADVECTOR: opening file: tapelev2_26_the_main_loop_empmr0.it0000.001.001.data
(PID.TID 0000.0001)  MDS_READ_RL_VEC: irec =  00000006   00004416
(PID.TID 0000.0001)  MDSREADVECTOR: opening file: tapelev2_27_the_main_loop_empmr1.it0000.001.001.data
(PID.TID 0000.0001)  MDS_READ_RL_VEC: irec =  00000006   00004416
(PID.TID 0000.0001)  MDSREADVECTOR: opening file: tapelev2_28_the_main_loop_sst0.it0000.001.001.data
(PID.TID 0000.0001)  MDS_READ_RL_VEC: irec =  00000006   00004416
(PID.TID 0000.0001)  MDSREADVECTOR: opening file: tapelev2_29_the_main_loop_sst1.it0000.001.001.data
(PID.TID 0000.0001)  MDS_READ_RL_VEC: irec =  00000006   00004416
(PID.TID 0000.0001)  MDSREADVECTOR: opening file: tapelev2_30_the_main_loop_sss0.it0000.001.001.data
(PID.TID 0000.0001)  MDS_READ_RL_VEC: irec =  00000006   00004416
(PID.TID 0000.0001)  MDSREADVECTOR: opening file: tapelev2_31_the_main_loop_sss1.it0000.001.001.data
(PID.TID 0000.0001)  MDS_READ_RL_VEC: irec =  00000006   00004416
(PID.TID 0000.0001)  MDSREADVECTOR: opening file: tapelev2_32_the_main_loop_qsw0.it0000.001.001.data
(PID.TID 0000.0001)  MDS_READ_RL_VEC: irec =  00000006   00004416
(PID.TID 0000.0001)  MDSREADVECTOR: opening file: tapelev2_33_the_main_loop_qsw1.it0000.001.001.data
(PID.TID 0000.0001)  MDS_READ_RL_VEC: irec =  00000006   00004416
 S/R EXTERNAL_FIELDS_LOAD: Reading new data  1296000. 30
(PID.TID 0000.0001)  MDSREADFIELD: opening global file: trenberth_taux.bin
(PID.TID 0000.0001)  MDSREADFIELD: opening global file: trenberth_taux.bin
(PID.TID 0000.0001)  MDSREADFIELD: opening global file: trenberth_tauy.bin
(PID.TID 0000.0001)  MDSREADFIELD: opening global file: trenberth_tauy.bin
(PID.TID 0000.0001)  MDSREADFIELD: opening global file: ncep_qnet.bin
(PID.TID 0000.0001)  MDSREADFIELD: opening global file: ncep_qnet.bin
(PID.TID 0000.0001)  MDSREADFIELD: opening global file: lev_sst.bin
(PID.TID 0000.0001)  MDSREADFIELD: opening global file: lev_sst.bin
(PID.TID 0000.0001)  MDSREADFIELD: opening global file: lev_sss.bin
(PID.TID 0000.0001)  MDSREADFIELD: opening global file: lev_sss.bin
time,SST,SSS,fu,fv,Q,E-P,i0,i1,a,b =   1.2960E+06  9.5843E-01  3.4715E+01 -3.5633E-02 -5.7257E-02  2.6577E+02  0.0000E+00     1     2  0.0000E+00  1.0000E+00
time,fu0,fu1,fu =   1.2960E+06 -3.5633E-02 -1.4435E-02 -3.5633E-02  0.0000E+00  1.0000E+00
 cg2d: Sum(rhs),rhsMax =  -9.65963420362925E-14  1.18840510747824E+01
(PID.TID 0000.0001)                    cg2d_init_res =    6.06247055459227E-01
(PID.TID 0000.0001)                       cg2d_iters =    24
(PID.TID 0000.0001)                         cg2d_res =    8.38529373452592E-14
time,SST,SSS,fu,fv,Q,E-P,i0,i1,a,b =   1.3392E+06  9.3359E-01  3.4710E+01 -3.5280E-02 -5.6596E-02  2.6535E+02  0.0000E+00     1     2  1.6667E-02  9.8333E-01
time,fu0,fu1,fu =   1.3392E+06 -3.5633E-02 -1.4435E-02 -3.5280E-02  1.6667E-02  9.8333E-01
 cg2d: Sum(rhs),rhsMax =   1.54161405863107E-13  1.08860124062525E+01
(PID.TID 0000.0001)                    cg2d_init_res =    6.60365299276509E-01
(PID.TID 0000.0001)                       cg2d_iters =    24
(PID.TID 0000.0001)                         cg2d_res =    6.71488466422073E-14
time,SST,SSS,fu,fv,Q,E-P,i0,i1,a,b =   1.3824E+06  9.0875E-01  3.4705E+01 -3.4926E-02 -5.5936E-02  2.6493E+02  0.0000E+00     1     2  3.3333E-02  9.6667E-01
time,fu0,fu1,fu =   1.3824E+06 -3.5633E-02 -1.4435E-02 -3.4926E-02  3.3333E-02  9.6667E-01
 cg2d: Sum(rhs),rhsMax =   3.41331130027100E-13  1.02664653546239E+01
(PID.TID 0000.0001)                    cg2d_init_res =    6.92575901705399E-01
(PID.TID 0000.0001)                       cg2d_iters =    25
(PID.TID 0000.0001)                         cg2d_res =    2.80468060668862E-14
time,SST,SSS,fu,fv,Q,E-P,i0,i1,a,b =   1.4256E+06  8.8391E-01  3.4700E+01 -3.4573E-02 -5.5276E-02  2.6451E+02  0.0000E+00     1     2  5.0000E-02  9.5000E-01
time,fu0,fu1,fu =   1.4256E+06 -3.5633E-02 -1.4435E-02 -3.4573E-02  5.0000E-02  9.5000E-01
 cg2d: Sum(rhs),rhsMax =   4.25326440733897E-13  1.03997405742577E+01
(PID.TID 0000.0001)                    cg2d_init_res =    6.69987640527556E-01
(PID.TID 0000.0001)                       cg2d_iters =    25
(PID.TID 0000.0001)                         cg2d_res =    3.21851542394920E-14
time,SST,SSS,fu,fv,Q,E-P,i0,i1,a,b =   1.4688E+06  8.5907E-01  3.4695E+01 -3.4220E-02 -5.4615E-02  2.6408E+02  0.0000E+00     1     2  6.6667E-02  9.3333E-01
time,fu0,fu1,fu =   1.4688E+06 -3.5633E-02 -1.4435E-02 -3.4220E-02  6.6667E-02  9.3333E-01
 cg2d: Sum(rhs),rhsMax =  -8.37524494201602E-15  1.04409397634177E+01
(PID.TID 0000.0001)                    cg2d_init_res =    6.48587778076756E-01
(PID.TID 0000.0001)                       cg2d_iters =    25
(PID.TID 0000.0001)                         cg2d_res =    3.48262299995085E-14
time,SST,SSS,fu,fv,Q,E-P,i0,i1,a,b =   1.5120E+06  8.3424E-01  3.4690E+01 -3.3866E-02 -5.3955E-02  2.6366E+02  0.0000E+00     1     2  8.3333E-02  9.1667E-01
time,fu0,fu1,fu =   1.5120E+06 -3.5633E-02 -1.4435E-02 -3.3866E-02  8.3333E-02  9.1667E-01
 cg2d: Sum(rhs),rhsMax =   1.41373024398206E-13  1.03873045656276E+01
(PID.TID 0000.0001)                    cg2d_init_res =    6.29996078945972E-01
(PID.TID 0000.0001)                       cg2d_iters =    25
(PID.TID 0000.0001)                         cg2d_res =    3.67656196488184E-14
time,SST,SSS,fu,fv,Q,E-P,i0,i1,a,b =   1.5120E+06  8.3424E-01  3.4690E+01 -3.3866E-02 -5.3955E-02  2.6366E+02  0.0000E+00     1     2  8.3333E-02  9.1667E-01
time,fu0,fu1,fu =   1.5120E+06 -3.5633E-02 -1.4435E-02 -3.3866E-02  8.3333E-02  9.1667E-01
 cg2d: Sum(rhs),rhsMax =   5.49039980146659E-16  8.42922883815539E-09
time,SST,SSS,fu,fv,Q,E-P,i0,i1,a,b =   1.4688E+06  8.5907E-01  3.4695E+01 -3.4220E-02 -5.4615E-02  2.6408E+02  0.0000E+00     1     2  6.6667E-02  9.3333E-01
time,fu0,fu1,fu =   1.4688E+06 -3.5633E-02 -1.4435E-02 -3.4220E-02  6.6667E-02  9.3333E-01
 cg2d: Sum(rhs),rhsMax =  -2.13988982783464E-15  8.19961551350620E-09
time,SST,SSS,fu,fv,Q,E-P,i0,i1,a,b =   1.4256E+06  8.8391E-01  3.4700E+01 -3.4573E-02 -5.5276E-02  2.6451E+02  0.0000E+00     1     2  5.0000E-02  9.5000E-01
time,fu0,fu1,fu =   1.4256E+06 -3.5633E-02 -1.4435E-02 -3.4573E-02  5.0000E-02  9.5000E-01
 cg2d: Sum(rhs),rhsMax =  -2.56825810618366E-15  7.90539423570140E-09
time,SST,SSS,fu,fv,Q,E-P,i0,i1,a,b =   1.3824E+06  9.0875E-01  3.4705E+01 -3.4926E-02 -5.5936E-02  2.6493E+02  0.0000E+00     1     2  3.3333E-02  9.6667E-01
time,fu0,fu1,fu =   1.3824E+06 -3.5633E-02 -1.4435E-02 -3.4926E-02  3.3333E-02  9.6667E-01
 cg2d: Sum(rhs),rhsMax =  -7.13838710364456E-15  8.22276870652146E-09
time,SST,SSS,fu,fv,Q,E-P,i0,i1,a,b =   1.3392E+06  9.3359E-01  3.4710E+01 -3.5280E-02 -5.6596E-02  2.6535E+02  0.0000E+00     1     2  1.6667E-02  9.8333E-01
time,fu0,fu1,fu =   1.3392E+06 -3.5633E-02 -1.4435E-02 -3.5280E-02  1.6667E-02  9.8333E-01
 cg2d: Sum(rhs),rhsMax =  -5.98653071559596E-15  8.46760115525470E-09
 S/R EXTERNAL_FIELDS_LOAD: Reading new data  1296000. 30
(PID.TID 0000.0001)  MDSREADFIELD: opening global file: trenberth_taux.bin
(PID.TID 0000.0001)  MDSREADFIELD: opening global file: trenberth_taux.bin
(PID.TID 0000.0001)  MDSREADFIELD: opening global file: trenberth_tauy.bin
(PID.TID 0000.0001)  MDSREADFIELD: opening global file: trenberth_tauy.bin
(PID.TID 0000.0001)  MDSREADFIELD: opening global file: ncep_qnet.bin
(PID.TID 0000.0001)  MDSREADFIELD: opening global file: ncep_qnet.bin
(PID.TID 0000.0001)  MDSREADFIELD: opening global file: lev_sst.bin
(PID.TID 0000.0001)  MDSREADFIELD: opening global file: lev_sst.bin
(PID.TID 0000.0001)  MDSREADFIELD: opening global file: lev_sss.bin
(PID.TID 0000.0001)  MDSREADFIELD: opening global file: lev_sss.bin
time,SST,SSS,fu,fv,Q,E-P,i0,i1,a,b =   1.2960E+06  9.5843E-01  3.4715E+01 -3.5633E-02 -5.7257E-02  2.6577E+02  0.0000E+00     1     2  0.0000E+00  1.0000E+00
time,fu0,fu1,fu =   1.2960E+06 -3.5633E-02 -1.4435E-02 -3.5633E-02  0.0000E+00  1.0000E+00
 cg2d: Sum(rhs),rhsMax =  -4.16333634234434E-16  8.43773271630599E-09
(PID.TID 0000.0001)  MDSREADFIELD: opening global file: trenberth_taux.bin
(PID.TID 0000.0001)  MDSREADFIELD: opening global file: trenberth_taux.bin
(PID.TID 0000.0001)  MDSREADFIELD: opening global file: trenberth_tauy.bin
(PID.TID 0000.0001)  MDSREADFIELD: opening global file: trenberth_tauy.bin
(PID.TID 0000.0001)  MDSREADFIELD: opening global file: ncep_qnet.bin
(PID.TID 0000.0001)  MDSREADFIELD: opening global file: ncep_qnet.bin
(PID.TID 0000.0001)  MDSREADFIELD: opening global file: lev_sst.bin
(PID.TID 0000.0001)  MDSREADFIELD: opening global file: lev_sst.bin
(PID.TID 0000.0001)  MDSREADFIELD: opening global file: lev_sss.bin
(PID.TID 0000.0001)  MDSREADFIELD: opening global file: lev_sss.bin
(PID.TID 0000.0001)  MDSREADVECTOR: opening file: tapelev2_1_the_main_loop_gs.it0000.001.001.data
(PID.TID 0000.0001)  MDS_READ_RL_VEC: irec =  00000005   00066240
(PID.TID 0000.0001)  MDSREADVECTOR: opening file: tapelev2_2_the_main_loop_gt.it0000.001.001.data
(PID.TID 0000.0001)  MDS_READ_RL_VEC: irec =  00000005   00066240
(PID.TID 0000.0001)  MDSREADVECTOR: opening file: tapelev2_3_the_main_loop_gsnm1.it0000.001.001.data
(PID.TID 0000.0001)  MDS_READ_RL_VEC: irec =  00000005   00066240
(PID.TID 0000.0001)  MDSREADVECTOR: opening file: tapelev2_4_the_main_loop_gtnm1.it0000.001.001.data
(PID.TID 0000.0001)  MDS_READ_RL_VEC: irec =  00000005   00066240
(PID.TID 0000.0001)  MDSREADVECTOR: opening file: tapelev2_5_the_main_loop_gunm1.it0000.001.001.data
(PID.TID 0000.0001)  MDS_READ_RL_VEC: irec =  00000005   00066240
(PID.TID 0000.0001)  MDSREADVECTOR: opening file: tapelev2_6_the_main_loop_gvnm1.it0000.001.001.data
(PID.TID 0000.0001)  MDS_READ_RL_VEC: irec =  00000005   00066240
(PID.TID 0000.0001)  MDSREADVECTOR: opening file: tapelev2_7_the_main_loop_theta.it0000.001.001.data
(PID.TID 0000.0001)  MDS_READ_RL_VEC: irec =  00000005   00066240
(PID.TID 0000.0001)  MDSREADVECTOR: opening file: tapelev2_8_the_main_loop_salt.it0000.001.001.data
(PID.TID 0000.0001)  MDS_READ_RL_VEC: irec =  00000005   00066240
(PID.TID 0000.0001)  MDSREADVECTOR: opening file: tapelev2_9_the_main_loop_uvel.it0000.001.001.data
(PID.TID 0000.0001)  MDS_READ_RL_VEC: irec =  00000005   00066240
(PID.TID 0000.0001)  MDSREADVECTOR: opening file: tapelev2_10_the_main_loop_vvel.it0000.001.001.data
(PID.TID 0000.0001)  MDS_READ_RL_VEC: irec =  00000005   00066240
(PID.TID 0000.0001)  MDSREADVECTOR: opening file: tapelev2_11_the_main_loop_wvel.it0000.001.001.data
(PID.TID 0000.0001)  MDS_READ_RL_VEC: irec =  00000005   00066240
(PID.TID 0000.0001)  MDSREADVECTOR: opening file: tapelev2_12_the_main_loop_etan.it0000.001.001.data
(PID.TID 0000.0001)  MDS_READ_RL_VEC: irec =  00000005   00004416
(PID.TID 0000.0001)  MDSREADVECTOR: opening file: tapelev2_13_the_main_loop_totphihyd.it0000.001.001.data
(PID.TID 0000.0001)  MDS_READ_RL_VEC: irec =  00000005   00066240
(PID.TID 0000.0001)  MDSREADVECTOR: opening file: tapelev2_15_the_main_loop_surfaceforcingtice.it0000.001.001.data
(PID.TID 0000.0001)  MDS_READ_RL_VEC: irec =  00000005   00004416
(PID.TID 0000.0001)  MDSREADVECTOR: opening file: tapelev2_17_the_main_loop_etah.it0000.001.001.data
(PID.TID 0000.0001)  MDS_READ_RL_VEC: irec =  00000005   00004416
(PID.TID 0000.0001)  MDSREADVECTOR: opening file: tapelev2_18_the_main_loop_detahdt.it0000.001.001.data
(PID.TID 0000.0001)  MDS_READ_RL_VEC: irec =  00000005   00004416
(PID.TID 0000.0001)  MDSREADVECTOR: opening file: tapelev2_19_the_main_loop_pmepr.it0000.001.001.data
(PID.TID 0000.0001)  MDS_READ_RL_VEC: irec =  00000005   00004416
(PID.TID 0000.0001)  MDSREADVECTOR: opening file: tapelev2_20_the_main_loop_taux0.it0000.001.001.data
(PID.TID 0000.0001)  MDS_READ_RL_VEC: irec =  00000005   00004416
(PID.TID 0000.0001)  MDSREADVECTOR: opening file: tapelev2_21_the_main_loop_taux1.it0000.001.001.data
(PID.TID 0000.0001)  MDS_READ_RL_VEC: irec =  00000005   00004416
(PID.TID 0000.0001)  MDSREADVECTOR: opening file: tapelev2_22_the_main_loop_tauy0.it0000.001.001.data
(PID.TID 0000.0001)  MDS_READ_RL_VEC: irec =  00000005   00004416
(PID.TID 0000.0001)  MDSREADVECTOR: opening file: tapelev2_23_the_main_loop_tauy1.it0000.001.001.data
(PID.TID 0000.0001)  MDS_READ_RL_VEC: irec =  00000005   00004416
(PID.TID 0000.0001)  MDSREADVECTOR: opening file: tapelev2_24_the_main_loop_qnet0.it0000.001.001.data
(PID.TID 0000.0001)  MDS_READ_RL_VEC: irec =  00000005   00004416
(PID.TID 0000.0001)  MDSREADVECTOR: opening file: tapelev2_25_the_main_loop_qnet1.it0000.001.001.data
(PID.TID 0000.0001)  MDS_READ_RL_VEC: irec =  00000005   00004416
(PID.TID 0000.0001)  MDSREADVECTOR: opening file: tapelev2_26_the_main_loop_empmr0.it0000.001.001.data
(PID.TID 0000.0001)  MDS_READ_RL_VEC: irec =  00000005   00004416
(PID.TID 0000.0001)  MDSREADVECTOR: opening file: tapelev2_27_the_main_loop_empmr1.it0000.001.001.data
(PID.TID 0000.0001)  MDS_READ_RL_VEC: irec =  00000005   00004416
(PID.TID 0000.0001)  MDSREADVECTOR: opening file: tapelev2_28_the_main_loop_sst0.it0000.001.001.data
(PID.TID 0000.0001)  MDS_READ_RL_VEC: irec =  00000005   00004416
(PID.TID 0000.0001)  MDSREADVECTOR: opening file: tapelev2_29_the_main_loop_sst1.it0000.001.001.data
(PID.TID 0000.0001)  MDS_READ_RL_VEC: irec =  00000005   00004416
(PID.TID 0000.0001)  MDSREADVECTOR: opening file: tapelev2_30_the_main_loop_sss0.it0000.001.001.data
(PID.TID 0000.0001)  MDS_READ_RL_VEC: irec =  00000005   00004416
(PID.TID 0000.0001)  MDSREADVECTOR: opening file: tapelev2_31_the_main_loop_sss1.it0000.001.001.data
(PID.TID 0000.0001)  MDS_READ_RL_VEC: irec =  00000005   00004416
(PID.TID 0000.0001)  MDSREADVECTOR: opening file: tapelev2_32_the_main_loop_qsw0.it0000.001.001.data
(PID.TID 0000.0001)  MDS_READ_RL_VEC: irec =  00000005   00004416
(PID.TID 0000.0001)  MDSREADVECTOR: opening file: tapelev2_33_the_main_loop_qsw1.it0000.001.001.data
(PID.TID 0000.0001)  MDS_READ_RL_VEC: irec =  00000005   00004416
time,SST,SSS,fu,fv,Q,E-P,i0,i1,a,b =   1.0368E+06  7.7737E-01  3.4644E+01 -3.6606E-02 -5.8556E-02  2.6564E+02  0.0000E+00    12     1  9.0000E-01  1.0000E-01
time,fu0,fu1,fu =   1.0368E+06 -4.5368E-02 -3.5633E-02 -3.6606E-02  9.0000E-01  1.0000E-01
 cg2d: Sum(rhs),rhsMax =  -4.33333924299006E-15  1.37323322818602E+01
(PID.TID 0000.0001)                    cg2d_init_res =    5.23673458799531E-01
(PID.TID 0000.0001)                       cg2d_iters =    25
(PID.TID 0000.0001)                         cg2d_res =    2.95860278283742E-14
time,SST,SSS,fu,fv,Q,E-P,i0,i1,a,b =   1.0800E+06  8.0755E-01  3.4656E+01 -3.6444E-02 -5.8339E-02  2.6566E+02  0.0000E+00    12     1  9.1667E-01  8.3333E-02
time,fu0,fu1,fu =   1.0800E+06 -4.5368E-02 -3.5633E-02 -3.6444E-02  9.1667E-01  8.3333E-02
 cg2d: Sum(rhs),rhsMax =  -1.08281439370472E-14  1.39675819284171E+01
(PID.TID 0000.0001)                    cg2d_init_res =    5.08227457210710E-01
(PID.TID 0000.0001)                       cg2d_iters =    25
(PID.TID 0000.0001)                         cg2d_res =    2.81794981582881E-14
time,SST,SSS,fu,fv,Q,E-P,i0,i1,a,b =   1.1232E+06  8.3772E-01  3.4668E+01 -3.6282E-02 -5.8123E-02  2.6568E+02  0.0000E+00    12     1  9.3333E-01  6.6667E-02
time,fu0,fu1,fu =   1.1232E+06 -4.5368E-02 -3.5633E-02 -3.6282E-02  9.3333E-01  6.6667E-02
 cg2d: Sum(rhs),rhsMax =  -1.96336003011055E-14  1.39838979558807E+01
(PID.TID 0000.0001)                    cg2d_init_res =    5.04783536373348E-01
(PID.TID 0000.0001)                       cg2d_iters =    25
(PID.TID 0000.0001)                         cg2d_res =    2.64033646866834E-14
time,SST,SSS,fu,fv,Q,E-P,i0,i1,a,b =   1.1664E+06  8.6790E-01  3.4679E+01 -3.6120E-02 -5.7906E-02  2.6570E+02  0.0000E+00    12     1  9.5000E-01  5.0000E-02
time,fu0,fu1,fu =   1.1664E+06 -4.5368E-02 -3.5633E-02 -3.6120E-02  9.5000E-01  5.0000E-02
 cg2d: Sum(rhs),rhsMax =  -8.17575174227869E-14  1.37769726896886E+01
(PID.TID 0000.0001)                    cg2d_init_res =    5.13230004478345E-01
(PID.TID 0000.0001)                       cg2d_iters =    25
(PID.TID 0000.0001)                         cg2d_res =    2.48009284097972E-14
time,SST,SSS,fu,fv,Q,E-P,i0,i1,a,b =   1.2096E+06  8.9807E-01  3.4691E+01 -3.5957E-02 -5.7690E-02  2.6573E+02  0.0000E+00    12     1  9.6667E-01  3.3333E-02
time,fu0,fu1,fu =   1.2096E+06 -4.5368E-02 -3.5633E-02 -3.5957E-02  9.6667E-01  3.3333E-02
 cg2d: Sum(rhs),rhsMax =  -7.53112849860571E-14  1.33499348747001E+01
(PID.TID 0000.0001)                    cg2d_init_res =    5.33178278206078E-01
(PID.TID 0000.0001)                       cg2d_iters =    25
(PID.TID 0000.0001)                         cg2d_res =    2.27729947224151E-14
time,SST,SSS,fu,fv,Q,E-P,i0,i1,a,b =   1.2528E+06  9.2825E-01  3.4703E+01 -3.5795E-02 -5.7473E-02  2.6575E+02  0.0000E+00    12     1  9.8333E-01  1.6667E-02
time,fu0,fu1,fu =   1.2528E+06 -4.5368E-02 -3.5633E-02 -3.5795E-02  9.8333E-01  1.6667E-02
 cg2d: Sum(rhs),rhsMax =   1.32248378914568E-13  1.27132009595264E+01
(PID.TID 0000.0001)                    cg2d_init_res =    5.64189995758438E-01
(PID.TID 0000.0001)                       cg2d_iters =    24
(PID.TID 0000.0001)                         cg2d_res =    9.36737805557787E-14
time,SST,SSS,fu,fv,Q,E-P,i0,i1,a,b =   1.2528E+06  9.2825E-01  3.4703E+01 -3.5795E-02 -5.7473E-02  2.6575E+02  0.0000E+00    12     1  9.8333E-01  1.6667E-02
time,fu0,fu1,fu =   1.2528E+06 -4.5368E-02 -3.5633E-02 -3.5795E-02  9.8333E-01  1.6667E-02
 cg2d: Sum(rhs),rhsMax =   2.38351005599213E-15  8.15487140693033E-09
time,SST,SSS,fu,fv,Q,E-P,i0,i1,a,b =   1.2096E+06  8.9807E-01  3.4691E+01 -3.5957E-02 -5.7690E-02  2.6573E+02  0.0000E+00    12     1  9.6667E-01  3.3333E-02
time,fu0,fu1,fu =   1.2096E+06 -4.5368E-02 -3.5633E-02 -3.5957E-02  9.6667E-01  3.3333E-02
 cg2d: Sum(rhs),rhsMax =   2.91433543964104E-15  7.88486989586504E-09
time,SST,SSS,fu,fv,Q,E-P,i0,i1,a,b =   1.1664E+06  8.6790E-01  3.4679E+01 -3.6120E-02 -5.7906E-02  2.6570E+02  0.0000E+00    12     1  9.5000E-01  5.0000E-02
time,fu0,fu1,fu =   1.1664E+06 -4.5368E-02 -3.5633E-02 -3.6120E-02  9.5000E-01  5.0000E-02
 cg2d: Sum(rhs),rhsMax =   4.48946435582798E-15  8.59101160631305E-09
time,SST,SSS,fu,fv,Q,E-P,i0,i1,a,b =   1.1232E+06  8.3772E-01  3.4668E+01 -3.6282E-02 -5.8123E-02  2.6568E+02  0.0000E+00    12     1  9.3333E-01  6.6667E-02
time,fu0,fu1,fu =   1.1232E+06 -4.5368E-02 -3.5633E-02 -3.6282E-02  9.3333E-01  6.6667E-02
 cg2d: Sum(rhs),rhsMax =   6.45317133063372E-16  9.05405739222265E-09
time,SST,SSS,fu,fv,Q,E-P,i0,i1,a,b =   1.0800E+06  8.0755E-01  3.4656E+01 -3.6444E-02 -5.8339E-02  2.6566E+02  0.0000E+00    12     1  9.1667E-01  8.3333E-02
time,fu0,fu1,fu =   1.0800E+06 -4.5368E-02 -3.5633E-02 -3.6444E-02  9.1667E-01  8.3333E-02
 cg2d: Sum(rhs),rhsMax =   1.11542719505309E-14  9.27046965225613E-09
time,SST,SSS,fu,fv,Q,E-P,i0,i1,a,b =   1.0368E+06  7.7737E-01  3.4644E+01 -3.6606E-02 -5.8556E-02  2.6564E+02  0.0000E+00    12     1  9.0000E-01  1.0000E-01
time,fu0,fu1,fu =   1.0368E+06 -4.5368E-02 -3.5633E-02 -3.6606E-02  9.0000E-01  1.0000E-01
 cg2d: Sum(rhs),rhsMax =  -1.37563571644961E-14  9.24407985250713E-09
(PID.TID 0000.0001)  MDSREADVECTOR: opening file: tapelev2_1_the_main_loop_gs.it0000.001.001.data
(PID.TID 0000.0001)  MDS_READ_RL_VEC: irec =  00000004   00066240
(PID.TID 0000.0001)  MDSREADVECTOR: opening file: tapelev2_2_the_main_loop_gt.it0000.001.001.data
(PID.TID 0000.0001)  MDS_READ_RL_VEC: irec =  00000004   00066240
(PID.TID 0000.0001)  MDSREADVECTOR: opening file: tapelev2_3_the_main_loop_gsnm1.it0000.001.001.data
(PID.TID 0000.0001)  MDS_READ_RL_VEC: irec =  00000004   00066240
(PID.TID 0000.0001)  MDSREADVECTOR: opening file: tapelev2_4_the_main_loop_gtnm1.it0000.001.001.data
(PID.TID 0000.0001)  MDS_READ_RL_VEC: irec =  00000004   00066240
(PID.TID 0000.0001)  MDSREADVECTOR: opening file: tapelev2_5_the_main_loop_gunm1.it0000.001.001.data
(PID.TID 0000.0001)  MDS_READ_RL_VEC: irec =  00000004   00066240
(PID.TID 0000.0001)  MDSREADVECTOR: opening file: tapelev2_6_the_main_loop_gvnm1.it0000.001.001.data
(PID.TID 0000.0001)  MDS_READ_RL_VEC: irec =  00000004   00066240
(PID.TID 0000.0001)  MDSREADVECTOR: opening file: tapelev2_7_the_main_loop_theta.it0000.001.001.data
(PID.TID 0000.0001)  MDS_READ_RL_VEC: irec =  00000004   00066240
(PID.TID 0000.0001)  MDSREADVECTOR: opening file: tapelev2_8_the_main_loop_salt.it0000.001.001.data
(PID.TID 0000.0001)  MDS_READ_RL_VEC: irec =  00000004   00066240
(PID.TID 0000.0001)  MDSREADVECTOR: opening file: tapelev2_9_the_main_loop_uvel.it0000.001.001.data
(PID.TID 0000.0001)  MDS_READ_RL_VEC: irec =  00000004   00066240
(PID.TID 0000.0001)  MDSREADVECTOR: opening file: tapelev2_10_the_main_loop_vvel.it0000.001.001.data
(PID.TID 0000.0001)  MDS_READ_RL_VEC: irec =  00000004   00066240
(PID.TID 0000.0001)  MDSREADVECTOR: opening file: tapelev2_11_the_main_loop_wvel.it0000.001.001.data
(PID.TID 0000.0001)  MDS_READ_RL_VEC: irec =  00000004   00066240
(PID.TID 0000.0001)  MDSREADVECTOR: opening file: tapelev2_12_the_main_loop_etan.it0000.001.001.data
(PID.TID 0000.0001)  MDS_READ_RL_VEC: irec =  00000004   00004416
(PID.TID 0000.0001)  MDSREADVECTOR: opening file: tapelev2_13_the_main_loop_totphihyd.it0000.001.001.data
(PID.TID 0000.0001)  MDS_READ_RL_VEC: irec =  00000004   00066240
(PID.TID 0000.0001)  MDSREADVECTOR: opening file: tapelev2_15_the_main_loop_surfaceforcingtice.it0000.001.001.data
(PID.TID 0000.0001)  MDS_READ_RL_VEC: irec =  00000004   00004416
(PID.TID 0000.0001)  MDSREADVECTOR: opening file: tapelev2_17_the_main_loop_etah.it0000.001.001.data
(PID.TID 0000.0001)  MDS_READ_RL_VEC: irec =  00000004   00004416
(PID.TID 0000.0001)  MDSREADVECTOR: opening file: tapelev2_18_the_main_loop_detahdt.it0000.001.001.data
(PID.TID 0000.0001)  MDS_READ_RL_VEC: irec =  00000004   00004416
(PID.TID 0000.0001)  MDSREADVECTOR: opening file: tapelev2_19_the_main_loop_pmepr.it0000.001.001.data
(PID.TID 0000.0001)  MDS_READ_RL_VEC: irec =  00000004   00004416
(PID.TID 0000.0001)  MDSREADVECTOR: opening file: tapelev2_20_the_main_loop_taux0.it0000.001.001.data
(PID.TID 0000.0001)  MDS_READ_RL_VEC: irec =  00000004   00004416
(PID.TID 0000.0001)  MDSREADVECTOR: opening file: tapelev2_21_the_main_loop_taux1.it0000.001.001.data
(PID.TID 0000.0001)  MDS_READ_RL_VEC: irec =  00000004   00004416
(PID.TID 0000.0001)  MDSREADVECTOR: opening file: tapelev2_22_the_main_loop_tauy0.it0000.001.001.data
(PID.TID 0000.0001)  MDS_READ_RL_VEC: irec =  00000004   00004416
(PID.TID 0000.0001)  MDSREADVECTOR: opening file: tapelev2_23_the_main_loop_tauy1.it0000.001.001.data
(PID.TID 0000.0001)  MDS_READ_RL_VEC: irec =  00000004   00004416
(PID.TID 0000.0001)  MDSREADVECTOR: opening file: tapelev2_24_the_main_loop_qnet0.it0000.001.001.data
(PID.TID 0000.0001)  MDS_READ_RL_VEC: irec =  00000004   00004416
(PID.TID 0000.0001)  MDSREADVECTOR: opening file: tapelev2_25_the_main_loop_qnet1.it0000.001.001.data
(PID.TID 0000.0001)  MDS_READ_RL_VEC: irec =  00000004   00004416
(PID.TID 0000.0001)  MDSREADVECTOR: opening file: tapelev2_26_the_main_loop_empmr0.it0000.001.001.data
(PID.TID 0000.0001)  MDS_READ_RL_VEC: irec =  00000004   00004416
(PID.TID 0000.0001)  MDSREADVECTOR: opening file: tapelev2_27_the_main_loop_empmr1.it0000.001.001.data
(PID.TID 0000.0001)  MDS_READ_RL_VEC: irec =  00000004   00004416
(PID.TID 0000.0001)  MDSREADVECTOR: opening file: tapelev2_28_the_main_loop_sst0.it0000.001.001.data
(PID.TID 0000.0001)  MDS_READ_RL_VEC: irec =  00000004   00004416
(PID.TID 0000.0001)  MDSREADVECTOR: opening file: tapelev2_29_the_main_loop_sst1.it0000.001.001.data
(PID.TID 0000.0001)  MDS_READ_RL_VEC: irec =  00000004   00004416
(PID.TID 0000.0001)  MDSREADVECTOR: opening file: tapelev2_30_the_main_loop_sss0.it0000.001.001.data
(PID.TID 0000.0001)  MDS_READ_RL_VEC: irec =  00000004   00004416
(PID.TID 0000.0001)  MDSREADVECTOR: opening file: tapelev2_31_the_main_loop_sss1.it0000.001.001.data
(PID.TID 0000.0001)  MDS_READ_RL_VEC: irec =  00000004   00004416
(PID.TID 0000.0001)  MDSREADVECTOR: opening file: tapelev2_32_the_main_loop_qsw0.it0000.001.001.data
(PID.TID 0000.0001)  MDS_READ_RL_VEC: irec =  00000004   00004416
(PID.TID 0000.0001)  MDSREADVECTOR: opening file: tapelev2_33_the_main_loop_qsw1.it0000.001.001.data
(PID.TID 0000.0001)  MDS_READ_RL_VEC: irec =  00000004   00004416
time,SST,SSS,fu,fv,Q,E-P,i0,i1,a,b =   7.7760E+05  5.9632E-01  3.4574E+01 -3.7580E-02 -5.9855E-02  2.6550E+02  0.0000E+00    12     1  8.0000E-01  2.0000E-01
time,fu0,fu1,fu =   7.7760E+05 -4.5368E-02 -3.5633E-02 -3.7580E-02  8.0000E-01  2.0000E-01
 cg2d: Sum(rhs),rhsMax =   5.76047889944142E-13  1.02854226332886E+01
(PID.TID 0000.0001)                    cg2d_init_res =    7.83476919431370E-01
(PID.TID 0000.0001)                       cg2d_iters =    25
(PID.TID 0000.0001)                         cg2d_res =    2.89423841294244E-14
time,SST,SSS,fu,fv,Q,E-P,i0,i1,a,b =   8.2080E+05  6.2649E-01  3.4586E+01 -3.7418E-02 -5.9638E-02  2.6552E+02  0.0000E+00    12     1  8.1667E-01  1.8333E-01
time,fu0,fu1,fu =   8.2080E+05 -4.5368E-02 -3.5633E-02 -3.7418E-02  8.1667E-01  1.8333E-01
 cg2d: Sum(rhs),rhsMax =  -2.90932208879546E-13  9.89942675036043E+00
(PID.TID 0000.0001)                    cg2d_init_res =    8.00116484606212E-01
(PID.TID 0000.0001)                       cg2d_iters =    25
(PID.TID 0000.0001)                         cg2d_res =    2.72752547860265E-14
time,SST,SSS,fu,fv,Q,E-P,i0,i1,a,b =   8.6400E+05  6.5667E-01  3.4598E+01 -3.7255E-02 -5.9422E-02  2.6555E+02  0.0000E+00    12     1  8.3333E-01  1.6667E-01
time,fu0,fu1,fu =   8.6400E+05 -4.5368E-02 -3.5633E-02 -3.7255E-02  8.3333E-01  1.6667E-01
 cg2d: Sum(rhs),rhsMax =   4.38832997717853E-14  1.09313661371492E+01
(PID.TID 0000.0001)                    cg2d_init_res =    7.11714648613837E-01
(PID.TID 0000.0001)                       cg2d_iters =    25
(PID.TID 0000.0001)                         cg2d_res =    3.01288833865242E-14
time,SST,SSS,fu,fv,Q,E-P,i0,i1,a,b =   9.0720E+05  6.8684E-01  3.4609E+01 -3.7093E-02 -5.9205E-02  2.6557E+02  0.0000E+00    12     1  8.5000E-01  1.5000E-01
time,fu0,fu1,fu =   9.0720E+05 -4.5368E-02 -3.5633E-02 -3.7093E-02  8.5000E-01  1.5000E-01
 cg2d: Sum(rhs),rhsMax =   2.58659413332474E-13  1.18621214870371E+01
(PID.TID 0000.0001)                    cg2d_init_res =    6.43345636412962E-01
(PID.TID 0000.0001)                       cg2d_iters =    25
(PID.TID 0000.0001)                         cg2d_res =    3.11563547955270E-14
time,SST,SSS,fu,fv,Q,E-P,i0,i1,a,b =   9.5040E+05  7.1702E-01  3.4621E+01 -3.6931E-02 -5.8989E-02  2.6559E+02  0.0000E+00    12     1  8.6667E-01  1.3333E-01
time,fu0,fu1,fu =   9.5040E+05 -4.5368E-02 -3.5633E-02 -3.6931E-02  8.6667E-01  1.3333E-01
 cg2d: Sum(rhs),rhsMax =  -1.29587313102419E-13  1.26581340407874E+01
(PID.TID 0000.0001)                    cg2d_init_res =    5.90613181043138E-01
(PID.TID 0000.0001)                       cg2d_iters =    25
(PID.TID 0000.0001)                         cg2d_res =    3.12549682797109E-14
time,SST,SSS,fu,fv,Q,E-P,i0,i1,a,b =   9.9360E+05  7.4719E-01  3.4633E+01 -3.6769E-02 -5.8772E-02  2.6561E+02  0.0000E+00    12     1  8.8333E-01  1.1667E-01
time,fu0,fu1,fu =   9.9360E+05 -4.5368E-02 -3.5633E-02 -3.6769E-02  8.8333E-01  1.1667E-01
 cg2d: Sum(rhs),rhsMax =  -9.83726988756928E-14  1.32897167539259E+01
(PID.TID 0000.0001)                    cg2d_init_res =    5.51067954395814E-01
(PID.TID 0000.0001)                       cg2d_iters =    25
(PID.TID 0000.0001)                         cg2d_res =    3.06771674434382E-14
time,SST,SSS,fu,fv,Q,E-P,i0,i1,a,b =   9.9360E+05  7.4719E-01  3.4633E+01 -3.6769E-02 -5.8772E-02  2.6561E+02  0.0000E+00    12     1  8.8333E-01  1.1667E-01
time,fu0,fu1,fu =   9.9360E+05 -4.5368E-02 -3.5633E-02 -3.6769E-02  8.8333E-01  1.1667E-01
 cg2d: Sum(rhs),rhsMax =  -1.34961486430996E-15  8.98604424202802E-09
time,SST,SSS,fu,fv,Q,E-P,i0,i1,a,b =   9.5040E+05  7.1702E-01  3.4621E+01 -3.6931E-02 -5.8989E-02  2.6559E+02  0.0000E+00    12     1  8.6667E-01  1.3333E-01
time,fu0,fu1,fu =   9.5040E+05 -4.5368E-02 -3.5633E-02 -3.6931E-02  8.6667E-01  1.3333E-01
 cg2d: Sum(rhs),rhsMax =   3.45209971719385E-15  8.51423257613627E-09
time,SST,SSS,fu,fv,Q,E-P,i0,i1,a,b =   9.0720E+05  6.8684E-01  3.4609E+01 -3.7093E-02 -5.9205E-02  2.6557E+02  0.0000E+00    12     1  8.5000E-01  1.5000E-01
time,fu0,fu1,fu =   9.0720E+05 -4.5368E-02 -3.5633E-02 -3.7093E-02  8.5000E-01  1.5000E-01
 cg2d: Sum(rhs),rhsMax =  -8.38912272982384E-15  7.85240940785098E-09
time,SST,SSS,fu,fv,Q,E-P,i0,i1,a,b =   8.6400E+05  6.5667E-01  3.4598E+01 -3.7255E-02 -5.9422E-02  2.6555E+02  0.0000E+00    12     1  8.3333E-01  1.6667E-01
time,fu0,fu1,fu =   8.6400E+05 -4.5368E-02 -3.5633E-02 -3.7255E-02  8.3333E-01  1.6667E-01
 cg2d: Sum(rhs),rhsMax =   3.86843335142828E-15  8.47036351788396E-09
time,SST,SSS,fu,fv,Q,E-P,i0,i1,a,b =   8.2080E+05  6.2649E-01  3.4586E+01 -3.7418E-02 -5.9638E-02  2.6552E+02  0.0000E+00    12     1  8.1667E-01  1.8333E-01
time,fu0,fu1,fu =   8.2080E+05 -4.5368E-02 -3.5633E-02 -3.7418E-02  8.1667E-01  1.8333E-01
 cg2d: Sum(rhs),rhsMax =   8.82974249272195E-15  9.32733997012988E-09
time,SST,SSS,fu,fv,Q,E-P,i0,i1,a,b =   7.7760E+05  5.9632E-01  3.4574E+01 -3.7580E-02 -5.9855E-02  2.6550E+02  0.0000E+00    12     1  8.0000E-01  2.0000E-01
time,fu0,fu1,fu =   7.7760E+05 -4.5368E-02 -3.5633E-02 -3.7580E-02  8.0000E-01  2.0000E-01
 cg2d: Sum(rhs),rhsMax =  -2.35922392732846E-16  1.01002757250079E-08
(PID.TID 0000.0001)  MDSREADVECTOR: opening file: tapelev2_1_the_main_loop_gs.it0000.001.001.data
(PID.TID 0000.0001)  MDS_READ_RL_VEC: irec =  00000003   00066240
(PID.TID 0000.0001)  MDSREADVECTOR: opening file: tapelev2_2_the_main_loop_gt.it0000.001.001.data
(PID.TID 0000.0001)  MDS_READ_RL_VEC: irec =  00000003   00066240
(PID.TID 0000.0001)  MDSREADVECTOR: opening file: tapelev2_3_the_main_loop_gsnm1.it0000.001.001.data
(PID.TID 0000.0001)  MDS_READ_RL_VEC: irec =  00000003   00066240
(PID.TID 0000.0001)  MDSREADVECTOR: opening file: tapelev2_4_the_main_loop_gtnm1.it0000.001.001.data
(PID.TID 0000.0001)  MDS_READ_RL_VEC: irec =  00000003   00066240
(PID.TID 0000.0001)  MDSREADVECTOR: opening file: tapelev2_5_the_main_loop_gunm1.it0000.001.001.data
(PID.TID 0000.0001)  MDS_READ_RL_VEC: irec =  00000003   00066240
(PID.TID 0000.0001)  MDSREADVECTOR: opening file: tapelev2_6_the_main_loop_gvnm1.it0000.001.001.data
(PID.TID 0000.0001)  MDS_READ_RL_VEC: irec =  00000003   00066240
(PID.TID 0000.0001)  MDSREADVECTOR: opening file: tapelev2_7_the_main_loop_theta.it0000.001.001.data
(PID.TID 0000.0001)  MDS_READ_RL_VEC: irec =  00000003   00066240
(PID.TID 0000.0001)  MDSREADVECTOR: opening file: tapelev2_8_the_main_loop_salt.it0000.001.001.data
(PID.TID 0000.0001)  MDS_READ_RL_VEC: irec =  00000003   00066240
(PID.TID 0000.0001)  MDSREADVECTOR: opening file: tapelev2_9_the_main_loop_uvel.it0000.001.001.data
(PID.TID 0000.0001)  MDS_READ_RL_VEC: irec =  00000003   00066240
(PID.TID 0000.0001)  MDSREADVECTOR: opening file: tapelev2_10_the_main_loop_vvel.it0000.001.001.data
(PID.TID 0000.0001)  MDS_READ_RL_VEC: irec =  00000003   00066240
(PID.TID 0000.0001)  MDSREADVECTOR: opening file: tapelev2_11_the_main_loop_wvel.it0000.001.001.data
(PID.TID 0000.0001)  MDS_READ_RL_VEC: irec =  00000003   00066240
(PID.TID 0000.0001)  MDSREADVECTOR: opening file: tapelev2_12_the_main_loop_etan.it0000.001.001.data
(PID.TID 0000.0001)  MDS_READ_RL_VEC: irec =  00000003   00004416
(PID.TID 0000.0001)  MDSREADVECTOR: opening file: tapelev2_13_the_main_loop_totphihyd.it0000.001.001.data
(PID.TID 0000.0001)  MDS_READ_RL_VEC: irec =  00000003   00066240
(PID.TID 0000.0001)  MDSREADVECTOR: opening file: tapelev2_15_the_main_loop_surfaceforcingtice.it0000.001.001.data
(PID.TID 0000.0001)  MDS_READ_RL_VEC: irec =  00000003   00004416
(PID.TID 0000.0001)  MDSREADVECTOR: opening file: tapelev2_17_the_main_loop_etah.it0000.001.001.data
(PID.TID 0000.0001)  MDS_READ_RL_VEC: irec =  00000003   00004416
(PID.TID 0000.0001)  MDSREADVECTOR: opening file: tapelev2_18_the_main_loop_detahdt.it0000.001.001.data
(PID.TID 0000.0001)  MDS_READ_RL_VEC: irec =  00000003   00004416
(PID.TID 0000.0001)  MDSREADVECTOR: opening file: tapelev2_19_the_main_loop_pmepr.it0000.001.001.data
(PID.TID 0000.0001)  MDS_READ_RL_VEC: irec =  00000003   00004416
(PID.TID 0000.0001)  MDSREADVECTOR: opening file: tapelev2_20_the_main_loop_taux0.it0000.001.001.data
(PID.TID 0000.0001)  MDS_READ_RL_VEC: irec =  00000003   00004416
(PID.TID 0000.0001)  MDSREADVECTOR: opening file: tapelev2_21_the_main_loop_taux1.it0000.001.001.data
(PID.TID 0000.0001)  MDS_READ_RL_VEC: irec =  00000003   00004416
(PID.TID 0000.0001)  MDSREADVECTOR: opening file: tapelev2_22_the_main_loop_tauy0.it0000.001.001.data
(PID.TID 0000.0001)  MDS_READ_RL_VEC: irec =  00000003   00004416
(PID.TID 0000.0001)  MDSREADVECTOR: opening file: tapelev2_23_the_main_loop_tauy1.it0000.001.001.data
(PID.TID 0000.0001)  MDS_READ_RL_VEC: irec =  00000003   00004416
(PID.TID 0000.0001)  MDSREADVECTOR: opening file: tapelev2_24_the_main_loop_qnet0.it0000.001.001.data
(PID.TID 0000.0001)  MDS_READ_RL_VEC: irec =  00000003   00004416
(PID.TID 0000.0001)  MDSREADVECTOR: opening file: tapelev2_25_the_main_loop_qnet1.it0000.001.001.data
(PID.TID 0000.0001)  MDS_READ_RL_VEC: irec =  00000003   00004416
(PID.TID 0000.0001)  MDSREADVECTOR: opening file: tapelev2_26_the_main_loop_empmr0.it0000.001.001.data
(PID.TID 0000.0001)  MDS_READ_RL_VEC: irec =  00000003   00004416
(PID.TID 0000.0001)  MDSREADVECTOR: opening file: tapelev2_27_the_main_loop_empmr1.it0000.001.001.data
(PID.TID 0000.0001)  MDS_READ_RL_VEC: irec =  00000003   00004416
(PID.TID 0000.0001)  MDSREADVECTOR: opening file: tapelev2_28_the_main_loop_sst0.it0000.001.001.data
(PID.TID 0000.0001)  MDS_READ_RL_VEC: irec =  00000003   00004416
(PID.TID 0000.0001)  MDSREADVECTOR: opening file: tapelev2_29_the_main_loop_sst1.it0000.001.001.data
(PID.TID 0000.0001)  MDS_READ_RL_VEC: irec =  00000003   00004416
(PID.TID 0000.0001)  MDSREADVECTOR: opening file: tapelev2_30_the_main_loop_sss0.it0000.001.001.data
(PID.TID 0000.0001)  MDS_READ_RL_VEC: irec =  00000003   00004416
(PID.TID 0000.0001)  MDSREADVECTOR: opening file: tapelev2_31_the_main_loop_sss1.it0000.001.001.data
(PID.TID 0000.0001)  MDS_READ_RL_VEC: irec =  00000003   00004416
(PID.TID 0000.0001)  MDSREADVECTOR: opening file: tapelev2_32_the_main_loop_qsw0.it0000.001.001.data
(PID.TID 0000.0001)  MDS_READ_RL_VEC: irec =  00000003   00004416
(PID.TID 0000.0001)  MDSREADVECTOR: opening file: tapelev2_33_the_main_loop_qsw1.it0000.001.001.data
(PID.TID 0000.0001)  MDS_READ_RL_VEC: irec =  00000003   00004416
time,SST,SSS,fu,fv,Q,E-P,i0,i1,a,b =   5.1840E+05  4.1526E-01  3.4504E+01 -3.8553E-02 -6.1154E-02  2.6537E+02  0.0000E+00    12     1  7.0000E-01  3.0000E-01
time,fu0,fu1,fu =   5.1840E+05 -4.5368E-02 -3.5633E-02 -3.8553E-02  7.0000E-01  3.0000E-01
 cg2d: Sum(rhs),rhsMax =   4.12369791091827E-14  8.75897655452794E+00
(PID.TID 0000.0001)                    cg2d_init_res =    1.05920576293182E+00
(PID.TID 0000.0001)                       cg2d_iters =    25
(PID.TID 0000.0001)                         cg2d_res =    7.25210987990287E-14
time,SST,SSS,fu,fv,Q,E-P,i0,i1,a,b =   5.6160E+05  4.4544E-01  3.4516E+01 -3.8391E-02 -6.0938E-02  2.6539E+02  0.0000E+00    12     1  7.1667E-01  2.8333E-01
time,fu0,fu1,fu =   5.6160E+05 -4.5368E-02 -3.5633E-02 -3.8391E-02  7.1667E-01  2.8333E-01
 cg2d: Sum(rhs),rhsMax =   4.12918831071973E-13  9.51806764571326E+00
(PID.TID 0000.0001)                    cg2d_init_res =    9.45113260119202E-01
(PID.TID 0000.0001)                       cg2d_iters =    25
(PID.TID 0000.0001)                         cg2d_res =    6.20690420471110E-14
time,SST,SSS,fu,fv,Q,E-P,i0,i1,a,b =   6.0480E+05  4.7561E-01  3.4527E+01 -3.8229E-02 -6.0721E-02  2.6541E+02  0.0000E+00    12     1  7.3333E-01  2.6667E-01
time,fu0,fu1,fu =   6.0480E+05 -4.5368E-02 -3.5633E-02 -3.8229E-02  7.3333E-01  2.6667E-01
 cg2d: Sum(rhs),rhsMax =   1.08753284155938E-13  1.00868019718989E+01
(PID.TID 0000.0001)                    cg2d_init_res =    8.67243369812957E-01
(PID.TID 0000.0001)                       cg2d_iters =    25
(PID.TID 0000.0001)                         cg2d_res =    5.35793844782717E-14
time,SST,SSS,fu,fv,Q,E-P,i0,i1,a,b =   6.4800E+05  5.0579E-01  3.4539E+01 -3.8067E-02 -6.0505E-02  2.6543E+02  0.0000E+00    12     1  7.5000E-01  2.5000E-01
time,fu0,fu1,fu =   6.4800E+05 -4.5368E-02 -3.5633E-02 -3.8067E-02  7.5000E-01  2.5000E-01
 cg2d: Sum(rhs),rhsMax =   1.53514354006568E-13  1.04478985847005E+01
(PID.TID 0000.0001)                    cg2d_init_res =    8.17030634109378E-01
(PID.TID 0000.0001)                       cg2d_iters =    25
(PID.TID 0000.0001)                         cg2d_res =    4.55836331914184E-14
time,SST,SSS,fu,fv,Q,E-P,i0,i1,a,b =   6.9120E+05  5.3596E-01  3.4551E+01 -3.7904E-02 -6.0288E-02  2.6546E+02  0.0000E+00    12     1  7.6667E-01  2.3333E-01
time,fu0,fu1,fu =   6.9120E+05 -4.5368E-02 -3.5633E-02 -3.7904E-02  7.6667E-01  2.3333E-01
 cg2d: Sum(rhs),rhsMax =   1.99819327750816E-13  1.05953427007009E+01
(PID.TID 0000.0001)                    cg2d_init_res =    7.88731651145148E-01
(PID.TID 0000.0001)                       cg2d_iters =    25
(PID.TID 0000.0001)                         cg2d_res =    3.90314304910886E-14
time,SST,SSS,fu,fv,Q,E-P,i0,i1,a,b =   7.3440E+05  5.6614E-01  3.4563E+01 -3.7742E-02 -6.0072E-02  2.6548E+02  0.0000E+00    12     1  7.8333E-01  2.1667E-01
time,fu0,fu1,fu =   7.3440E+05 -4.5368E-02 -3.5633E-02 -3.7742E-02  7.8333E-01  2.1667E-01
 cg2d: Sum(rhs),rhsMax =  -1.81420850564606E-13  1.05352089710680E+01
(PID.TID 0000.0001)                    cg2d_init_res =    7.78419646014583E-01
(PID.TID 0000.0001)                       cg2d_iters =    24
(PID.TID 0000.0001)                         cg2d_res =    8.31053252155784E-14
time,SST,SSS,fu,fv,Q,E-P,i0,i1,a,b =   7.3440E+05  5.6614E-01  3.4563E+01 -3.7742E-02 -6.0072E-02  2.6548E+02  0.0000E+00    12     1  7.8333E-01  2.1667E-01
time,fu0,fu1,fu =   7.3440E+05 -4.5368E-02 -3.5633E-02 -3.7742E-02  7.8333E-01  2.1667E-01
 cg2d: Sum(rhs),rhsMax =  -2.13024042849952E-15  1.07959706551507E-08
time,SST,SSS,fu,fv,Q,E-P,i0,i1,a,b =   6.9120E+05  5.3596E-01  3.4551E+01 -3.7904E-02 -6.0288E-02  2.6546E+02  0.0000E+00    12     1  7.6667E-01  2.3333E-01
time,fu0,fu1,fu =   6.9120E+05 -4.5368E-02 -3.5633E-02 -3.7904E-02  7.6667E-01  2.3333E-01
 cg2d: Sum(rhs),rhsMax =   1.50591344949547E-14  1.14168530343105E-08
time,SST,SSS,fu,fv,Q,E-P,i0,i1,a,b =   6.4800E+05  5.0579E-01  3.4539E+01 -3.8067E-02 -6.0505E-02  2.6543E+02  0.0000E+00    12     1  7.5000E-01  2.5000E-01
time,fu0,fu1,fu =   6.4800E+05 -4.5368E-02 -3.5633E-02 -3.8067E-02  7.5000E-01  2.5000E-01
 cg2d: Sum(rhs),rhsMax =   4.09915157373320E-15  1.19111599086481E-08
time,SST,SSS,fu,fv,Q,E-P,i0,i1,a,b =   6.0480E+05  4.7561E-01  3.4527E+01 -3.8229E-02 -6.0721E-02  2.6541E+02  0.0000E+00    12     1  7.3333E-01  2.6667E-01
time,fu0,fu1,fu =   6.0480E+05 -4.5368E-02 -3.5633E-02 -3.8229E-02  7.3333E-01  2.6667E-01
 cg2d: Sum(rhs),rhsMax =   4.66640615037761E-16  1.22837043073740E-08
time,SST,SSS,fu,fv,Q,E-P,i0,i1,a,b =   5.6160E+05  4.4544E-01  3.4516E+01 -3.8391E-02 -6.0938E-02  2.6539E+02  0.0000E+00    12     1  7.1667E-01  2.8333E-01
time,fu0,fu1,fu =   5.6160E+05 -4.5368E-02 -3.5633E-02 -3.8391E-02  7.1667E-01  2.8333E-01
 cg2d: Sum(rhs),rhsMax =   1.06650799303054E-14  1.25192472328333E-08
time,SST,SSS,fu,fv,Q,E-P,i0,i1,a,b =   5.1840E+05  4.1526E-01  3.4504E+01 -3.8553E-02 -6.1154E-02  2.6537E+02  0.0000E+00    12     1  7.0000E-01  3.0000E-01
time,fu0,fu1,fu =   5.1840E+05 -4.5368E-02 -3.5633E-02 -3.8553E-02  7.0000E-01  3.0000E-01
 cg2d: Sum(rhs),rhsMax =   7.63278329429795E-15  1.26619978358411E-08
(PID.TID 0000.0001)  MDSREADVECTOR: opening file: tapelev2_1_the_main_loop_gs.it0000.001.001.data
(PID.TID 0000.0001)  MDS_READ_RL_VEC: irec =  00000002   00066240
(PID.TID 0000.0001)  MDSREADVECTOR: opening file: tapelev2_2_the_main_loop_gt.it0000.001.001.data
(PID.TID 0000.0001)  MDS_READ_RL_VEC: irec =  00000002   00066240
(PID.TID 0000.0001)  MDSREADVECTOR: opening file: tapelev2_3_the_main_loop_gsnm1.it0000.001.001.data
(PID.TID 0000.0001)  MDS_READ_RL_VEC: irec =  00000002   00066240
(PID.TID 0000.0001)  MDSREADVECTOR: opening file: tapelev2_4_the_main_loop_gtnm1.it0000.001.001.data
(PID.TID 0000.0001)  MDS_READ_RL_VEC: irec =  00000002   00066240
(PID.TID 0000.0001)  MDSREADVECTOR: opening file: tapelev2_5_the_main_loop_gunm1.it0000.001.001.data
(PID.TID 0000.0001)  MDS_READ_RL_VEC: irec =  00000002   00066240
(PID.TID 0000.0001)  MDSREADVECTOR: opening file: tapelev2_6_the_main_loop_gvnm1.it0000.001.001.data
(PID.TID 0000.0001)  MDS_READ_RL_VEC: irec =  00000002   00066240
(PID.TID 0000.0001)  MDSREADVECTOR: opening file: tapelev2_7_the_main_loop_theta.it0000.001.001.data
(PID.TID 0000.0001)  MDS_READ_RL_VEC: irec =  00000002   00066240
(PID.TID 0000.0001)  MDSREADVECTOR: opening file: tapelev2_8_the_main_loop_salt.it0000.001.001.data
(PID.TID 0000.0001)  MDS_READ_RL_VEC: irec =  00000002   00066240
(PID.TID 0000.0001)  MDSREADVECTOR: opening file: tapelev2_9_the_main_loop_uvel.it0000.001.001.data
(PID.TID 0000.0001)  MDS_READ_RL_VEC: irec =  00000002   00066240
(PID.TID 0000.0001)  MDSREADVECTOR: opening file: tapelev2_10_the_main_loop_vvel.it0000.001.001.data
(PID.TID 0000.0001)  MDS_READ_RL_VEC: irec =  00000002   00066240
(PID.TID 0000.0001)  MDSREADVECTOR: opening file: tapelev2_11_the_main_loop_wvel.it0000.001.001.data
(PID.TID 0000.0001)  MDS_READ_RL_VEC: irec =  00000002   00066240
(PID.TID 0000.0001)  MDSREADVECTOR: opening file: tapelev2_12_the_main_loop_etan.it0000.001.001.data
(PID.TID 0000.0001)  MDS_READ_RL_VEC: irec =  00000002   00004416
(PID.TID 0000.0001)  MDSREADVECTOR: opening file: tapelev2_13_the_main_loop_totphihyd.it0000.001.001.data
(PID.TID 0000.0001)  MDS_READ_RL_VEC: irec =  00000002   00066240
(PID.TID 0000.0001)  MDSREADVECTOR: opening file: tapelev2_15_the_main_loop_surfaceforcingtice.it0000.001.001.data
(PID.TID 0000.0001)  MDS_READ_RL_VEC: irec =  00000002   00004416
(PID.TID 0000.0001)  MDSREADVECTOR: opening file: tapelev2_17_the_main_loop_etah.it0000.001.001.data
(PID.TID 0000.0001)  MDS_READ_RL_VEC: irec =  00000002   00004416
(PID.TID 0000.0001)  MDSREADVECTOR: opening file: tapelev2_18_the_main_loop_detahdt.it0000.001.001.data
(PID.TID 0000.0001)  MDS_READ_RL_VEC: irec =  00000002   00004416
(PID.TID 0000.0001)  MDSREADVECTOR: opening file: tapelev2_19_the_main_loop_pmepr.it0000.001.001.data
(PID.TID 0000.0001)  MDS_READ_RL_VEC: irec =  00000002   00004416
(PID.TID 0000.0001)  MDSREADVECTOR: opening file: tapelev2_20_the_main_loop_taux0.it0000.001.001.data
(PID.TID 0000.0001)  MDS_READ_RL_VEC: irec =  00000002   00004416
(PID.TID 0000.0001)  MDSREADVECTOR: opening file: tapelev2_21_the_main_loop_taux1.it0000.001.001.data
(PID.TID 0000.0001)  MDS_READ_RL_VEC: irec =  00000002   00004416
(PID.TID 0000.0001)  MDSREADVECTOR: opening file: tapelev2_22_the_main_loop_tauy0.it0000.001.001.data
(PID.TID 0000.0001)  MDS_READ_RL_VEC: irec =  00000002   00004416
(PID.TID 0000.0001)  MDSREADVECTOR: opening file: tapelev2_23_the_main_loop_tauy1.it0000.001.001.data
(PID.TID 0000.0001)  MDS_READ_RL_VEC: irec =  00000002   00004416
(PID.TID 0000.0001)  MDSREADVECTOR: opening file: tapelev2_24_the_main_loop_qnet0.it0000.001.001.data
(PID.TID 0000.0001)  MDS_READ_RL_VEC: irec =  00000002   00004416
(PID.TID 0000.0001)  MDSREADVECTOR: opening file: tapelev2_25_the_main_loop_qnet1.it0000.001.001.data
(PID.TID 0000.0001)  MDS_READ_RL_VEC: irec =  00000002   00004416
(PID.TID 0000.0001)  MDSREADVECTOR: opening file: tapelev2_26_the_main_loop_empmr0.it0000.001.001.data
(PID.TID 0000.0001)  MDS_READ_RL_VEC: irec =  00000002   00004416
(PID.TID 0000.0001)  MDSREADVECTOR: opening file: tapelev2_27_the_main_loop_empmr1.it0000.001.001.data
(PID.TID 0000.0001)  MDS_READ_RL_VEC: irec =  00000002   00004416
(PID.TID 0000.0001)  MDSREADVECTOR: opening file: tapelev2_28_the_main_loop_sst0.it0000.001.001.data
(PID.TID 0000.0001)  MDS_READ_RL_VEC: irec =  00000002   00004416
(PID.TID 0000.0001)  MDSREADVECTOR: opening file: tapelev2_29_the_main_loop_sst1.it0000.001.001.data
(PID.TID 0000.0001)  MDS_READ_RL_VEC: irec =  00000002   00004416
(PID.TID 0000.0001)  MDSREADVECTOR: opening file: tapelev2_30_the_main_loop_sss0.it0000.001.001.data
(PID.TID 0000.0001)  MDS_READ_RL_VEC: irec =  00000002   00004416
(PID.TID 0000.0001)  MDSREADVECTOR: opening file: tapelev2_31_the_main_loop_sss1.it0000.001.001.data
(PID.TID 0000.0001)  MDS_READ_RL_VEC: irec =  00000002   00004416
(PID.TID 0000.0001)  MDSREADVECTOR: opening file: tapelev2_32_the_main_loop_qsw0.it0000.001.001.data
(PID.TID 0000.0001)  MDS_READ_RL_VEC: irec =  00000002   00004416
(PID.TID 0000.0001)  MDSREADVECTOR: opening file: tapelev2_33_the_main_loop_qsw1.it0000.001.001.data
(PID.TID 0000.0001)  MDS_READ_RL_VEC: irec =  00000002   00004416
time,SST,SSS,fu,fv,Q,E-P,i0,i1,a,b =   2.5920E+05  2.3421E-01  3.4434E+01 -3.9527E-02 -6.2453E-02  2.6523E+02  0.0000E+00    12     1  6.0000E-01  4.0000E-01
time,fu0,fu1,fu =   2.5920E+05 -4.5368E-02 -3.5633E-02 -3.9527E-02  6.0000E-01  4.0000E-01
 cg2d: Sum(rhs),rhsMax =  -1.91834395590895E-14  7.15197465286572E+00
(PID.TID 0000.0001)                    cg2d_init_res =    1.59738164591764E+00
(PID.TID 0000.0001)                       cg2d_iters =    26
(PID.TID 0000.0001)                         cg2d_res =    2.62641988737220E-14
time,SST,SSS,fu,fv,Q,E-P,i0,i1,a,b =   3.0240E+05  2.6438E-01  3.4446E+01 -3.9365E-02 -6.2237E-02  2.6525E+02  0.0000E+00    12     1  6.1667E-01  3.8333E-01
time,fu0,fu1,fu =   3.0240E+05 -4.5368E-02 -3.5633E-02 -3.9365E-02  6.1667E-01  3.8333E-01
 cg2d: Sum(rhs),rhsMax =  -5.15221545982492E-14  7.75912737003211E+00
(PID.TID 0000.0001)                    cg2d_init_res =    1.41815022550285E+00
(PID.TID 0000.0001)                       cg2d_iters =    26
(PID.TID 0000.0001)                         cg2d_res =    2.36111246841890E-14
time,SST,SSS,fu,fv,Q,E-P,i0,i1,a,b =   3.4560E+05  2.9456E-01  3.4457E+01 -3.9202E-02 -6.2020E-02  2.6528E+02  0.0000E+00    12     1  6.3333E-01  3.6667E-01
time,fu0,fu1,fu =   3.4560E+05 -4.5368E-02 -3.5633E-02 -3.9202E-02  6.3333E-01  3.6667E-01
 cg2d: Sum(rhs),rhsMax =  -9.81766751229074E-15  8.10189543860990E+00
(PID.TID 0000.0001)                    cg2d_init_res =    1.30943319583915E+00
(PID.TID 0000.0001)                       cg2d_iters =    25
(PID.TID 0000.0001)                         cg2d_res =    9.75841872088373E-14
time,SST,SSS,fu,fv,Q,E-P,i0,i1,a,b =   3.8880E+05  3.2473E-01  3.4469E+01 -3.9040E-02 -6.1804E-02  2.6530E+02  0.0000E+00    12     1  6.5000E-01  3.5000E-01
time,fu0,fu1,fu =   3.8880E+05 -4.5368E-02 -3.5633E-02 -3.9040E-02  6.5000E-01  3.5000E-01
 cg2d: Sum(rhs),rhsMax =  -7.33621605304713E-14  8.20838987866646E+00
(PID.TID 0000.0001)                    cg2d_init_res =    1.24843073915269E+00
(PID.TID 0000.0001)                       cg2d_iters =    25
(PID.TID 0000.0001)                         cg2d_res =    9.14512458266233E-14
time,SST,SSS,fu,fv,Q,E-P,i0,i1,a,b =   4.3200E+05  3.5491E-01  3.4481E+01 -3.8878E-02 -6.1587E-02  2.6532E+02  0.0000E+00    12     1  6.6667E-01  3.3333E-01
time,fu0,fu1,fu =   4.3200E+05 -4.5368E-02 -3.5633E-02 -3.8878E-02  6.6667E-01  3.3333E-01
 cg2d: Sum(rhs),rhsMax =   1.99253807897648E-13  8.13787538473572E+00
(PID.TID 0000.0001)                    cg2d_init_res =    1.21764756088769E+00
(PID.TID 0000.0001)                       cg2d_iters =    25
(PID.TID 0000.0001)                         cg2d_res =    8.73112779654718E-14
time,SST,SSS,fu,fv,Q,E-P,i0,i1,a,b =   4.7520E+05  3.8508E-01  3.4492E+01 -3.8716E-02 -6.1371E-02  2.6534E+02  0.0000E+00    12     1  6.8333E-01  3.1667E-01
time,fu0,fu1,fu =   4.7520E+05 -4.5368E-02 -3.5633E-02 -3.8716E-02  6.8333E-01  3.1667E-01
 cg2d: Sum(rhs),rhsMax =   5.60549870409766E-14  8.14788871653525E+00
(PID.TID 0000.0001)                    cg2d_init_res =    1.17638061758654E+00
(PID.TID 0000.0001)                       cg2d_iters =    25
(PID.TID 0000.0001)                         cg2d_res =    8.27100366042113E-14
time,SST,SSS,fu,fv,Q,E-P,i0,i1,a,b =   4.7520E+05  3.8508E-01  3.4492E+01 -3.8716E-02 -6.1371E-02  2.6534E+02  0.0000E+00    12     1  6.8333E-01  3.1667E-01
time,fu0,fu1,fu =   4.7520E+05 -4.5368E-02 -3.5633E-02 -3.8716E-02  6.8333E-01  3.1667E-01
 cg2d: Sum(rhs),rhsMax =   3.89098475661598E-15  1.26802174375277E-08
time,SST,SSS,fu,fv,Q,E-P,i0,i1,a,b =   4.3200E+05  3.5491E-01  3.4481E+01 -3.8878E-02 -6.1587E-02  2.6532E+02  0.0000E+00    12     1  6.6667E-01  3.3333E-01
time,fu0,fu1,fu =   4.3200E+05 -4.5368E-02 -3.5633E-02 -3.8878E-02  6.6667E-01  3.3333E-01
 cg2d: Sum(rhs),rhsMax =  -1.49481121924921E-14  1.25775125631589E-08
time,SST,SSS,fu,fv,Q,E-P,i0,i1,a,b =   3.8880E+05  3.2473E-01  3.4469E+01 -3.9040E-02 -6.1804E-02  2.6530E+02  0.0000E+00    12     1  6.5000E-01  3.5000E-01
time,fu0,fu1,fu =   3.8880E+05 -4.5368E-02 -3.5633E-02 -3.9040E-02  6.5000E-01  3.5000E-01
 cg2d: Sum(rhs),rhsMax =  -5.19376208707456E-15  1.23621202571351E-08
time,SST,SSS,fu,fv,Q,E-P,i0,i1,a,b =   3.4560E+05  2.9456E-01  3.4457E+01 -3.9202E-02 -6.2020E-02  2.6528E+02  0.0000E+00    12     1  6.3333E-01  3.6667E-01
time,fu0,fu1,fu =   3.4560E+05 -4.5368E-02 -3.5633E-02 -3.9202E-02  6.3333E-01  3.6667E-01
 cg2d: Sum(rhs),rhsMax =   9.31806715120942E-15  1.20456817306465E-08
time,SST,SSS,fu,fv,Q,E-P,i0,i1,a,b =   3.0240E+05  2.6438E-01  3.4446E+01 -3.9365E-02 -6.2237E-02  2.6525E+02  0.0000E+00    12     1  6.1667E-01  3.8333E-01
time,fu0,fu1,fu =   3.0240E+05 -4.5368E-02 -3.5633E-02 -3.9365E-02  6.1667E-01  3.8333E-01
 cg2d: Sum(rhs),rhsMax =  -8.18095591270662E-15  1.16467405905490E-08
time,SST,SSS,fu,fv,Q,E-P,i0,i1,a,b =   2.5920E+05  2.3421E-01  3.4434E+01 -3.9527E-02 -6.2453E-02  2.6523E+02  0.0000E+00    12     1  6.0000E-01  4.0000E-01
time,fu0,fu1,fu =   2.5920E+05 -4.5368E-02 -3.5633E-02 -3.9527E-02  6.0000E-01  4.0000E-01
 cg2d: Sum(rhs),rhsMax =   3.81552428541099E-15  1.11220613683275E-08
(PID.TID 0000.0001)  MDSREADVECTOR: opening file: tapelev2_1_the_main_loop_gs.it0000.001.001.data
(PID.TID 0000.0001)  MDS_READ_RL_VEC: irec =  00000001   00066240
(PID.TID 0000.0001)  MDSREADVECTOR: opening file: tapelev2_2_the_main_loop_gt.it0000.001.001.data
(PID.TID 0000.0001)  MDS_READ_RL_VEC: irec =  00000001   00066240
(PID.TID 0000.0001)  MDSREADVECTOR: opening file: tapelev2_3_the_main_loop_gsnm1.it0000.001.001.data
(PID.TID 0000.0001)  MDS_READ_RL_VEC: irec =  00000001   00066240
(PID.TID 0000.0001)  MDSREADVECTOR: opening file: tapelev2_4_the_main_loop_gtnm1.it0000.001.001.data
(PID.TID 0000.0001)  MDS_READ_RL_VEC: irec =  00000001   00066240
(PID.TID 0000.0001)  MDSREADVECTOR: opening file: tapelev2_5_the_main_loop_gunm1.it0000.001.001.data
(PID.TID 0000.0001)  MDS_READ_RL_VEC: irec =  00000001   00066240
(PID.TID 0000.0001)  MDSREADVECTOR: opening file: tapelev2_6_the_main_loop_gvnm1.it0000.001.001.data
(PID.TID 0000.0001)  MDS_READ_RL_VEC: irec =  00000001   00066240
(PID.TID 0000.0001)  MDSREADVECTOR: opening file: tapelev2_7_the_main_loop_theta.it0000.001.001.data
(PID.TID 0000.0001)  MDS_READ_RL_VEC: irec =  00000001   00066240
(PID.TID 0000.0001)  MDSREADVECTOR: opening file: tapelev2_8_the_main_loop_salt.it0000.001.001.data
(PID.TID 0000.0001)  MDS_READ_RL_VEC: irec =  00000001   00066240
(PID.TID 0000.0001)  MDSREADVECTOR: opening file: tapelev2_9_the_main_loop_uvel.it0000.001.001.data
(PID.TID 0000.0001)  MDS_READ_RL_VEC: irec =  00000001   00066240
(PID.TID 0000.0001)  MDSREADVECTOR: opening file: tapelev2_10_the_main_loop_vvel.it0000.001.001.data
(PID.TID 0000.0001)  MDS_READ_RL_VEC: irec =  00000001   00066240
(PID.TID 0000.0001)  MDSREADVECTOR: opening file: tapelev2_11_the_main_loop_wvel.it0000.001.001.data
(PID.TID 0000.0001)  MDS_READ_RL_VEC: irec =  00000001   00066240
(PID.TID 0000.0001)  MDSREADVECTOR: opening file: tapelev2_12_the_main_loop_etan.it0000.001.001.data
(PID.TID 0000.0001)  MDS_READ_RL_VEC: irec =  00000001   00004416
(PID.TID 0000.0001)  MDSREADVECTOR: opening file: tapelev2_13_the_main_loop_totphihyd.it0000.001.001.data
(PID.TID 0000.0001)  MDS_READ_RL_VEC: irec =  00000001   00066240
(PID.TID 0000.0001)  MDSREADVECTOR: opening file: tapelev2_15_the_main_loop_surfaceforcingtice.it0000.001.001.data
(PID.TID 0000.0001)  MDS_READ_RL_VEC: irec =  00000001   00004416
(PID.TID 0000.0001)  MDSREADVECTOR: opening file: tapelev2_17_the_main_loop_etah.it0000.001.001.data
(PID.TID 0000.0001)  MDS_READ_RL_VEC: irec =  00000001   00004416
(PID.TID 0000.0001)  MDSREADVECTOR: opening file: tapelev2_18_the_main_loop_detahdt.it0000.001.001.data
(PID.TID 0000.0001)  MDS_READ_RL_VEC: irec =  00000001   00004416
(PID.TID 0000.0001)  MDSREADVECTOR: opening file: tapelev2_19_the_main_loop_pmepr.it0000.001.001.data
(PID.TID 0000.0001)  MDS_READ_RL_VEC: irec =  00000001   00004416
(PID.TID 0000.0001)  MDSREADVECTOR: opening file: tapelev2_20_the_main_loop_taux0.it0000.001.001.data
(PID.TID 0000.0001)  MDS_READ_RL_VEC: irec =  00000001   00004416
(PID.TID 0000.0001)  MDSREADVECTOR: opening file: tapelev2_21_the_main_loop_taux1.it0000.001.001.data
(PID.TID 0000.0001)  MDS_READ_RL_VEC: irec =  00000001   00004416
(PID.TID 0000.0001)  MDSREADVECTOR: opening file: tapelev2_22_the_main_loop_tauy0.it0000.001.001.data
(PID.TID 0000.0001)  MDS_READ_RL_VEC: irec =  00000001   00004416
(PID.TID 0000.0001)  MDSREADVECTOR: opening file: tapelev2_23_the_main_loop_tauy1.it0000.001.001.data
(PID.TID 0000.0001)  MDS_READ_RL_VEC: irec =  00000001   00004416
(PID.TID 0000.0001)  MDSREADVECTOR: opening file: tapelev2_24_the_main_loop_qnet0.it0000.001.001.data
(PID.TID 0000.0001)  MDS_READ_RL_VEC: irec =  00000001   00004416
(PID.TID 0000.0001)  MDSREADVECTOR: opening file: tapelev2_25_the_main_loop_qnet1.it0000.001.001.data
(PID.TID 0000.0001)  MDS_READ_RL_VEC: irec =  00000001   00004416
(PID.TID 0000.0001)  MDSREADVECTOR: opening file: tapelev2_26_the_main_loop_empmr0.it0000.001.001.data
(PID.TID 0000.0001)  MDS_READ_RL_VEC: irec =  00000001   00004416
(PID.TID 0000.0001)  MDSREADVECTOR: opening file: tapelev2_27_the_main_loop_empmr1.it0000.001.001.data
(PID.TID 0000.0001)  MDS_READ_RL_VEC: irec =  00000001   00004416
(PID.TID 0000.0001)  MDSREADVECTOR: opening file: tapelev2_28_the_main_loop_sst0.it0000.001.001.data
(PID.TID 0000.0001)  MDS_READ_RL_VEC: irec =  00000001   00004416
(PID.TID 0000.0001)  MDSREADVECTOR: opening file: tapelev2_29_the_main_loop_sst1.it0000.001.001.data
(PID.TID 0000.0001)  MDS_READ_RL_VEC: irec =  00000001   00004416
(PID.TID 0000.0001)  MDSREADVECTOR: opening file: tapelev2_30_the_main_loop_sss0.it0000.001.001.data
(PID.TID 0000.0001)  MDS_READ_RL_VEC: irec =  00000001   00004416
(PID.TID 0000.0001)  MDSREADVECTOR: opening file: tapelev2_31_the_main_loop_sss1.it0000.001.001.data
(PID.TID 0000.0001)  MDS_READ_RL_VEC: irec =  00000001   00004416
(PID.TID 0000.0001)  MDSREADVECTOR: opening file: tapelev2_32_the_main_loop_qsw0.it0000.001.001.data
(PID.TID 0000.0001)  MDS_READ_RL_VEC: irec =  00000001   00004416
(PID.TID 0000.0001)  MDSREADVECTOR: opening file: tapelev2_33_the_main_loop_qsw1.it0000.001.001.data
(PID.TID 0000.0001)  MDS_READ_RL_VEC: irec =  00000001   00004416
 S/R EXTERNAL_FIELDS_LOAD: Reading new data  0. 0
(PID.TID 0000.0001)  MDSREADFIELD: opening global file: trenberth_taux.bin
(PID.TID 0000.0001)  MDSREADFIELD: opening global file: trenberth_taux.bin
(PID.TID 0000.0001)  MDSREADFIELD: opening global file: trenberth_tauy.bin
(PID.TID 0000.0001)  MDSREADFIELD: opening global file: trenberth_tauy.bin
(PID.TID 0000.0001)  MDSREADFIELD: opening global file: ncep_qnet.bin
(PID.TID 0000.0001)  MDSREADFIELD: opening global file: ncep_qnet.bin
(PID.TID 0000.0001)  MDSREADFIELD: opening global file: lev_sst.bin
(PID.TID 0000.0001)  MDSREADFIELD: opening global file: lev_sst.bin
(PID.TID 0000.0001)  MDSREADFIELD: opening global file: lev_sss.bin
(PID.TID 0000.0001)  MDSREADFIELD: opening global file: lev_sss.bin
time,SST,SSS,fu,fv,Q,E-P,i0,i1,a,b =   0.0000E+00  5.3151E-02  3.4364E+01 -4.0500E-02 -6.3753E-02  2.6510E+02  0.0000E+00    12     1  5.0000E-01  5.0000E-01
time,fu0,fu1,fu =   0.0000E+00 -4.5368E-02 -3.5633E-02 -4.0500E-02  5.0000E-01  5.0000E-01
(PID.TID 0000.0001)  MDSREADFIELD: opening file: xx_tauu.0000000000.001.001.data
(PID.TID 0000.0001)  MDSREADFIELD: opening file: xx_tauv.0000000000.001.001.data
(PID.TID 0000.0001)  MDSREADFIELD: opening file: xx_sflux.0000000000.001.001.data
(PID.TID 0000.0001)  MDSREADFIELD: opening file: xx_hflux.0000000000.001.001.data
 cg2d: Sum(rhs),rhsMax =  -5.55111512312578E-17  2.51126027825716E+00
(PID.TID 0000.0001)                    cg2d_init_res =    6.25921682922720E+00
(PID.TID 0000.0001)                       cg2d_iters =    26
(PID.TID 0000.0001)                         cg2d_res =    4.96600264521541E-14
time,SST,SSS,fu,fv,Q,E-P,i0,i1,a,b =   4.3200E+04  8.3327E-02  3.4375E+01 -4.0338E-02 -6.3536E-02  2.6512E+02  0.0000E+00    12     1  5.1667E-01  4.8333E-01
time,fu0,fu1,fu =   4.3200E+04 -4.5368E-02 -3.5633E-02 -4.0338E-02  5.1667E-01  4.8333E-01
 cg2d: Sum(rhs),rhsMax =   5.09800535120064E-14  4.88048471044203E+00
(PID.TID 0000.0001)                    cg2d_init_res =    3.38567973212929E+00
(PID.TID 0000.0001)                       cg2d_iters =    26
(PID.TID 0000.0001)                         cg2d_res =    3.27664080606883E-14
time,SST,SSS,fu,fv,Q,E-P,i0,i1,a,b =   8.6400E+04  1.1350E-01  3.4387E+01 -4.0176E-02 -6.3320E-02  2.6514E+02  0.0000E+00    12     1  5.3333E-01  4.6667E-01
time,fu0,fu1,fu =   8.6400E+04 -4.5368E-02 -3.5633E-02 -4.0176E-02  5.3333E-01  4.6667E-01
 cg2d: Sum(rhs),rhsMax =  -1.17406084854110E-14  6.23803641968524E+00
(PID.TID 0000.0001)                    cg2d_init_res =    2.21964830975065E+00
(PID.TID 0000.0001)                       cg2d_iters =    26
(PID.TID 0000.0001)                         cg2d_res =    2.85735424033974E-14
time,SST,SSS,fu,fv,Q,E-P,i0,i1,a,b =   1.2960E+05  1.4368E-01  3.4399E+01 -4.0014E-02 -6.3103E-02  2.6516E+02  0.0000E+00    12     1  5.5000E-01  4.5000E-01
time,fu0,fu1,fu =   1.2960E+05 -4.5368E-02 -3.5633E-02 -4.0014E-02  5.5000E-01  4.5000E-01
 cg2d: Sum(rhs),rhsMax =   4.60222138176647E-14  6.79014299228627E+00
(PID.TID 0000.0001)                    cg2d_init_res =    1.84397149847904E+00
(PID.TID 0000.0001)                       cg2d_iters =    26
(PID.TID 0000.0001)                         cg2d_res =    2.55763781723462E-14
time,SST,SSS,fu,fv,Q,E-P,i0,i1,a,b =   1.7280E+05  1.7385E-01  3.4410E+01 -3.9851E-02 -6.2886E-02  2.6519E+02  0.0000E+00    12     1  5.6667E-01  4.3333E-01
time,fu0,fu1,fu =   1.7280E+05 -4.5368E-02 -3.5633E-02 -3.9851E-02  5.6667E-01  4.3333E-01
 cg2d: Sum(rhs),rhsMax =  -6.82023881815041E-14  6.92874107573634E+00
(PID.TID 0000.0001)                    cg2d_init_res =    1.75169689873266E+00
(PID.TID 0000.0001)                       cg2d_iters =    26
(PID.TID 0000.0001)                         cg2d_res =    2.59803641655544E-14
time,SST,SSS,fu,fv,Q,E-P,i0,i1,a,b =   2.1600E+05  2.0403E-01  3.4422E+01 -3.9689E-02 -6.2670E-02  2.6521E+02  0.0000E+00    12     1  5.8333E-01  4.1667E-01
time,fu0,fu1,fu =   2.1600E+05 -4.5368E-02 -3.5633E-02 -3.9689E-02  5.8333E-01  4.1667E-01
 cg2d: Sum(rhs),rhsMax =  -6.17995238316738E-14  6.89395558172306E+00
(PID.TID 0000.0001)                    cg2d_init_res =    1.71510087440367E+00
(PID.TID 0000.0001)                       cg2d_iters =    26
(PID.TID 0000.0001)                         cg2d_res =    2.74380042537324E-14
time,SST,SSS,fu,fv,Q,E-P,i0,i1,a,b =   2.1600E+05  2.0403E-01  3.4422E+01 -3.9689E-02 -6.2670E-02  2.6521E+02  0.0000E+00    12     1  5.8333E-01  4.1667E-01
time,fu0,fu1,fu =   2.1600E+05 -4.5368E-02 -3.5633E-02 -3.9689E-02  5.8333E-01  4.1667E-01
 cg2d: Sum(rhs),rhsMax =   3.28730098697605E-15  1.05166524530026E-08
time,SST,SSS,fu,fv,Q,E-P,i0,i1,a,b =   1.7280E+05  1.7385E-01  3.4410E+01 -3.9851E-02 -6.2886E-02  2.6519E+02  0.0000E+00    12     1  5.6667E-01  4.3333E-01
time,fu0,fu1,fu =   1.7280E+05 -4.5368E-02 -3.5633E-02 -3.9851E-02  5.6667E-01  4.3333E-01
 cg2d: Sum(rhs),rhsMax =  -7.11236625150491E-15  9.82240795117074E-09
time,SST,SSS,fu,fv,Q,E-P,i0,i1,a,b =   1.2960E+05  1.4368E-01  3.4399E+01 -4.0014E-02 -6.3103E-02  2.6516E+02  0.0000E+00    12     1  5.5000E-01  4.5000E-01
time,fu0,fu1,fu =   1.2960E+05 -4.5368E-02 -3.5633E-02 -4.0014E-02  5.5000E-01  4.5000E-01
 cg2d: Sum(rhs),rhsMax =  -2.00447297649120E-15  9.06443818686635E-09
time,SST,SSS,fu,fv,Q,E-P,i0,i1,a,b =   8.6400E+04  1.1350E-01  3.4387E+01 -4.0176E-02 -6.3320E-02  2.6514E+02  0.0000E+00    12     1  5.3333E-01  4.6667E-01
time,fu0,fu1,fu =   8.6400E+04 -4.5368E-02 -3.5633E-02 -4.0176E-02  5.3333E-01  4.6667E-01
 cg2d: Sum(rhs),rhsMax =   2.25622472094233E-15  8.24692473854868E-09
time,SST,SSS,fu,fv,Q,E-P,i0,i1,a,b =   4.3200E+04  8.3327E-02  3.4375E+01 -4.0338E-02 -6.3536E-02  2.6512E+02  0.0000E+00    12     1  5.1667E-01  4.8333E-01
time,fu0,fu1,fu =   4.3200E+04 -4.5368E-02 -3.5633E-02 -4.0338E-02  5.1667E-01  4.8333E-01
 cg2d: Sum(rhs),rhsMax =  -5.07276512462518E-15  7.91045693635529E-09
 S/R EXTERNAL_FIELDS_LOAD: Reading new data  0. 0
(PID.TID 0000.0001)  MDSREADFIELD: opening global file: trenberth_taux.bin
(PID.TID 0000.0001)  MDSREADFIELD: opening global file: trenberth_taux.bin
(PID.TID 0000.0001)  MDSREADFIELD: opening global file: trenberth_tauy.bin
(PID.TID 0000.0001)  MDSREADFIELD: opening global file: trenberth_tauy.bin
(PID.TID 0000.0001)  MDSREADFIELD: opening global file: ncep_qnet.bin
(PID.TID 0000.0001)  MDSREADFIELD: opening global file: ncep_qnet.bin
(PID.TID 0000.0001)  MDSREADFIELD: opening global file: lev_sst.bin
(PID.TID 0000.0001)  MDSREADFIELD: opening global file: lev_sst.bin
(PID.TID 0000.0001)  MDSREADFIELD: opening global file: lev_sss.bin
(PID.TID 0000.0001)  MDSREADFIELD: opening global file: lev_sss.bin
time,SST,SSS,fu,fv,Q,E-P,i0,i1,a,b =   0.0000E+00  5.3151E-02  3.4364E+01 -4.0500E-02 -6.3753E-02  2.6510E+02  0.0000E+00    12     1  5.0000E-01  5.0000E-01
time,fu0,fu1,fu =   0.0000E+00 -4.5368E-02 -3.5633E-02 -4.0500E-02  5.0000E-01  5.0000E-01
(PID.TID 0000.0001)  MDSREADFIELD: opening file: xx_tauu.0000000000.001.001.data
(PID.TID 0000.0001)  MDSREADFIELD: opening file: xx_tauv.0000000000.001.001.data
(PID.TID 0000.0001)  MDSREADFIELD: opening file: xx_sflux.0000000000.001.001.data
(PID.TID 0000.0001)  MDSREADFIELD: opening file: xx_hflux.0000000000.001.001.data
 cg2d: Sum(rhs),rhsMax =   1.58857302312576E-15  2.63229229872451E-08
(PID.TID 0000.0001)  MDSREADFIELD: opening file: adxx_hflux.0000000000.001.001.data
(PID.TID 0000.0001)  MDSREADFIELD: opening file: adxx_sflux.0000000000.001.001.data
(PID.TID 0000.0001)  MDSREADFIELD: opening file: adxx_tauv.0000000000.001.001.data
(PID.TID 0000.0001)  MDSREADFIELD: opening file: adxx_tauu.0000000000.001.001.data
(PID.TID 0000.0001)  MDSREADFIELD: opening global file: trenberth_taux.bin
(PID.TID 0000.0001)  MDSREADFIELD: opening global file: trenberth_taux.bin
(PID.TID 0000.0001)  MDSREADFIELD: opening global file: trenberth_tauy.bin
(PID.TID 0000.0001)  MDSREADFIELD: opening global file: trenberth_tauy.bin
(PID.TID 0000.0001)  MDSREADFIELD: opening global file: ncep_qnet.bin
(PID.TID 0000.0001)  MDSREADFIELD: opening global file: ncep_qnet.bin
(PID.TID 0000.0001)  MDSREADFIELD: opening global file: lev_sst.bin
(PID.TID 0000.0001)  MDSREADFIELD: opening global file: lev_sst.bin
(PID.TID 0000.0001)  MDSREADFIELD: opening global file: lev_sss.bin
(PID.TID 0000.0001)  MDSREADFIELD: opening global file: lev_sss.bin
(PID.TID 0000.0001)  MDSREADFIELD: opening global file: lev_t.bin
(PID.TID 0000.0001) // =======================================================
(PID.TID 0000.0001) // Field Initial Temperature at iteration          1
(PID.TID 0000.0001) // CMIN =         -1.900000000000000E+00
(PID.TID 0000.0001) // CMAX =          2.973338890075684E+01
(PID.TID 0000.0001) // CINT =          1.171606996324327E+00
(PID.TID 0000.0001) // SYMBOLS (CMIN->CMAX): -abcdefghijklmnopqrstuvwxyz+
(PID.TID 0000.0001) //                  0.0: .
(PID.TID 0000.0001) // RANGE I (Lo:Hi:Step):(   1:  90:   1)
(PID.TID 0000.0001) // RANGE J (Lo:Hi:Step):(  40:   1:  -1)
(PID.TID 0000.0001) // RANGE K (Lo:Hi:Step):(   1:   1:   1)
(PID.TID 0000.0001) // =======================================================
(PID.TID 0000.0001) K =   1
(PID.TID 0000.0001)                I=10      I=20      I=30      I=40      I=50      I=60      I=70      I=80      I=90
(PID.TID 0000.0001) |--J--|123456789|123456789|123456789|123456789|123456789|123456789|123456789|123456789|123456789|
(PID.TID 0000.0001)     40 bccdd.baa----abdedd..................................................................bbbbb
(PID.TID 0000.0001)     39 ccdddddccbbbaa...ed.....................................................----........bbbbbb
(PID.TID 0000.0001)     38 fffgfedeedddc...........................................................-----......cbbbcde
(PID.TID 0000.0001)     37 ghh..................................................................bc...bbc...edeed.defg
(PID.TID 0000.0001)     36 hh.........................................ddcb....................dcccbabccdd.eefghhihhih
(PID.TID 0000.0001)     35 hh.................................aaab..dddeddd...ffggg...........ccc....ddeeeffghijjjjih
(PID.TID 0000.0001)     34 ...................................babb.deeeeeee.ffffgghh..................ccdffghijkkkj..
(PID.TID 0000.0001)     33 ....................................accdddeeeeefffffgghhiii.................bcfijkkllllkk.
(PID.TID 0000.0001)     32 ....................................bdddeffgffgghhhhhiiijjj................dccglmnmmmmlll.
(PID.TID 0000.0001)     31 ....................................fghiiiijjjjjjkkkkklllkk..............ikkjjmooooonnmm..
(PID.TID 0000.0001)     30 ...................................mmmnmmmmmmmmmmmmmnnnnnmm............moqrrrqrqqqpppooo..
(PID.TID 0000.0001)     29 .................................pqqqqqpppppppppoppoppppponm...........ssssssrrrrrqqqqpp..
(PID.TID 0000.0001)     28 ...............................prssssrrrsssrrrrrrrrrrrrrqqpoo.........uttssstssrssrrrqqq..
(PID.TID 0000.0001)     27 ..............vv..............stuttuuuuutuuuuuuuuuuttttssrrqqq...stuu.vvvuuuuutttttsss....
(PID.TID 0000.0001)     26 ..............vvv...........uuvvvvvwwwwwwwwvvvvvvvvvuuutttsssttv.uuvxxwwwwwwvvvvuuttsr....
(PID.TID 0000.0001)     25 ..............wwwx...xxx...vvvxxxxxyyxxxxxxxxxwwwwwvvvvvuuuuuvwwx...xxxxxxwwwwwwvvutsr....
(PID.TID 0000.0001)     24 ............wwwwxyy.xxyy...wxx.yyyyyyyyyyyxxxxxxxxwwwwwwwvvwwxxyywww.xxxxxxxxxxwwwvvur....
(PID.TID 0000.0001)     23 ............xxxyyyz.xyyy...xxx..yyyyzzyyyyyyyyxxxxxxxxxwwwwwxxxwwwwwx....vwxxxxwwwwwvu....
(PID.TID 0000.0001)     22 w...........xxyyyzyyyyyz...xx.yyzzzzzzzzzzzzzyyzyyyyyyxxwwxxxxwvvvwwxw......yyyyxxxxxxwxxw
(PID.TID 0000.0001)     21 xxx........xxxxyyzzzzzzz+.....zyzzzzzzz++zzzzyyyyyyyyxxwvvwwwwvvvvvvvu........yyyyyyyyyxxx
(PID.TID 0000.0001)     20 xww.......xyyyyxyyzzzzzz+......z.zzzzz+++zzzzzzyyyyyxxxxwvwxwvuuuuuuut.........yyyyxxxxwww
(PID.TID 0000.0001)     19 vvv.......yyyyxwwxyzyyzzzzz...zzz.....++++++z++z+zzzyyyyxxxxwwvvvvvvvu...........yyxxxwwww
(PID.TID 0000.0001)     18 uut.......zzyyywwxyzyyyyzzyzzzzzz...z+z++++zz+++++++zzzyyyyxxwwwvvvvvtt..........yyxxwvvwv
(PID.TID 0000.0001)     17 uus.......z.yyyyyyxyzzyyyyyyyzz.....yzzzzzzzzzzzzzzzzzzyyyyxxwwvuuvvuut.........yyyxxwttvu
(PID.TID 0000.0001)     16 utr......yy.zyyyyxxxxxxxwxxxxy.......yyyyyyyyyyyyyyyyyyyyyyyxxwvvvuuutts........xyyyxwvuuu
(PID.TID 0000.0001)     15 ttrr....xxx.xxxwxwwwwvwwvvvww.........xwxxxxxxxxxxxxxxxxxyyyxwwwvvuttssrr......wxxxxxwwvuu
(PID.TID 0000.0001)     14 ttsq....xyxwwxwvwwwvutuuuuuuu.........wwvwwwwvwvvwwwvwvvwwwwwwvvvuuutssrr.....vwwwwwwwvvvu
(PID.TID 0000.0001)     13 tttr....wwwvvvtttuuuutttssttt.........vvvuuuuuuutttttuuuuuvwwwuuuttttssrr....uvvvvvvvvvvut
(PID.TID 0000.0001)     12 sssssstttutssssrrrrrstrqqrrssqqrrq....uuttssssrrrrrrrrrrrstttssssrssrrqp.....uuuttssttssss
(PID.TID 0000.0001)     11 poprsssrqqqqqrqppooopqpoppppppppppp..sssrrr.rqpppqqqqppppqqqoppqqqqrqqpp....prsrqqqqqppppq
(PID.TID 0000.0001)     10 lllmoooonmnnmnnnnmmmmmmlmmlllmnnnnon.qqqppp.ppppppooooooooonmnnnonnooooo..nmoponnmnnnnnmll
(PID.TID 0000.0001)      9 ihhiiiihhhhhhiiihiiiiihhhiiiijjkkmnllnnnnn.mmmmnnnnmmmmnnmmlklllllklllll.mllmmllkjiijjihhi
(PID.TID 0000.0001)      8 eeeeeeeedefgggffeeffggffffggghiiiijjijklklkkkkkkkklllkkkkjjiiijkjjjjjjkj.kkjjiihggffffedde
(PID.TID 0000.0001)      7 cccccddeedddefeddddddddddefeefffffgggghiiiiiijjjihhgggghhhhhghhhhhhhiiiihiihhgfeddddddcccc
(PID.TID 0000.0001)      6 abbcccddcccccdddddccdddddddccddddddeeeeffggggghhgeddddddeeeeeeefggggghggggffeedccbbbbbbbba
(PID.TID 0000.0001)      5 bbbcccccccccccccccccccccbbccccdddddddcccddeeddeedcbbbbbbccccccdddeeeeeddddddccbbbbaaaaaaab
(PID.TID 0000.0001)      4 bbbbbbbaaabbbbbbbbbbbbaabbabbbbcbbbbbbbbbbbbbbbbbbbabbaaabbbbbbbbbbbbbbbbb..a--aaabbbaaabb
(PID.TID 0000.0001)      3 bbbbaaa-a-............................bbaaaaaaaaaaaaaaaaaaaaaaaaaaaaaaaab..aaaaaaaabbbaaaa
(PID.TID 0000.0001)      2 ..........................................baaaaaaaaaaaa-------aa..aaaa.....aaaaaaaaaaaa...
(PID.TID 0000.0001)      1 ..........................................................................................
(PID.TID 0000.0001) // =======================================================
(PID.TID 0000.0001) // END OF FIELD                                          =
(PID.TID 0000.0001) // =======================================================
(PID.TID 0000.0001) 
(PID.TID 0000.0001)  MDSREADFIELD: opening global file: lev_s.bin
(PID.TID 0000.0001) // =======================================================
(PID.TID 0000.0001) // Field Initial Salinity at iteration          1
(PID.TID 0000.0001) // CMIN =          2.975276947021484E+01
(PID.TID 0000.0001) // CMAX =          3.747562789916992E+01
(PID.TID 0000.0001) // CINT =          2.860317936650029E-01
(PID.TID 0000.0001) // SYMBOLS (CMIN->CMAX): -abcdefghijklmnopqrstuvwxyz+
(PID.TID 0000.0001) //                  0.0: .
(PID.TID 0000.0001) // RANGE I (Lo:Hi:Step):(   1:  90:   1)
(PID.TID 0000.0001) // RANGE J (Lo:Hi:Step):(  40:   1:  -1)
(PID.TID 0000.0001) // RANGE K (Lo:Hi:Step):(   1:   1:   1)
(PID.TID 0000.0001) // =======================================================
(PID.TID 0000.0001) K =   1
(PID.TID 0000.0001)                I=10      I=20      I=30      I=40      I=50      I=60      I=70      I=80      I=90
(PID.TID 0000.0001) |--J--|123456789|123456789|123456789|123456789|123456789|123456789|123456789|123456789|123456789|
(PID.TID 0000.0001)     40 qrrrr.oonnooopqtutt..................................................................mnnop
(PID.TID 0000.0001)     39 rssrrrrrrrqqpn...ut.....................................................mmmm........opqqqr
(PID.TID 0000.0001)     38 ssrrqqqqrrqpo...........................................................lkkll......onoqrrs
(PID.TID 0000.0001)     37 ssr..................................................................hg...lln...qppqr.rrrs
(PID.TID 0000.0001)     36 rr.........................................lkji....................feeegikmoop.pqrssssssss
(PID.TID 0000.0001)     35 rr.................................kkkk..lllllki...jijjj...........aa-....opqrrrrrrrssttss
(PID.TID 0000.0001)     34 ...................................jlll.kklllllk.ijkkkjih..................hlpqrqrrsstts..
(PID.TID 0000.0001)     33 ....................................iklkkkkkkkkkjkkjjjjjjii.................jmprrsstttttt.
(PID.TID 0000.0001)     32 ....................................iklllkllllllllkkkkkkkji................gilpstuuttuuut.
(PID.TID 0000.0001)     31 ....................................lmnonnnnoooonnmmmmllkjj..............loopqtvvvuuuuuu..
(PID.TID 0000.0001)     30 ...................................pppppppqqqqpppoooonnmlkk............ptvxwwvvwvvvvvvvu..
(PID.TID 0000.0001)     29 .................................pqqrqqqqqqrrrqqppqqqpponmll...........vxxxxxxwwwwwxwwxw..
(PID.TID 0000.0001)     28 ...............................prrrrrqqrrrrrsrrsrssssssrqonmm.........wxxxxxxxyyyyyyyyxx..
(PID.TID 0000.0001)     27 ..............xx..............prrrrrrrrrssssssstttssssssrqpoop...uwww.wwxxxyyy++zzzzyy....
(PID.TID 0000.0001)     26 ..............wxx...........ppqrrrrrrsssrrstsstttssrrrrrrrqppqqp.wwwvvwwwwwxyy+++zzyxw....
(PID.TID 0000.0001)     25 ..............wxxv...kkk...ooopqrrrrrssrrrrrrrssssqqpppppppppppoo...vvutuuvvwxyyyxxvvu....
(PID.TID 0000.0001)     24 ............uvvwwur.lmlk...nmm.pqqqqrrrrrqqqqrrqqrpppppooooonmmmnooo.uuuuuuttuvvvuvuut....
(PID.TID 0000.0001)     23 ............vvuvtqp.lmml...mln..ppppqpqppppppqpppppppppqppponnnnnoopm....xvuuuvvvvuuut....
(PID.TID 0000.0001)     22 r...........vuttsqqpnppn...mm.oppqqrrqqqqqqppppqqrrrqqqrrppppoopooomjj......uuvvvvvuttssrr
(PID.TID 0000.0001)     21 qmm........ttsssssssrsqon.....opqqqqqqqrrrrqqqssssssrrrrrrrrpqqqppomll........tvvvvuttssrr
(PID.TID 0000.0001)     20 sqq.......sttssrrsrrrrpol......p.qrqpqrrrrrrrstttttsssrrsssrqrrrrqqqpo.........wwwvvvuuutt
(PID.TID 0000.0001)     19 tsr.......ssssrrrrpppppnmmm...oqq.....qrqqsrrstttuuuttssttssrrssrrrrqq...........wwwvuvvvv
(PID.TID 0000.0001)     18 wut.......ssrrrrrqppppppppoooorrr...poqqqprrrttttuuutuuuuuutttttttutsss..........yyxwwxwxx
(PID.TID 0000.0001)     17 wwu.......s.rrrrrrqppppqqqqqqqr.....rrsrqrsssuusrtuuuvvvwwvvvuuuuutttss.........xyzyyyyxxx
(PID.TID 0000.0001)     16 vvt......ss.qrrssrqrqpqrrrrrrr.......ssrrstsstusrsuuuvwwwwxxwwvvvuttttsr........yz+zzzxwww
(PID.TID 0000.0001)     15 utss....stt.rrssstttsrrsrstsr.........ssstttssttsuuttuvvvvwxwwwwwuttsssrr......xyyyyxyyxwv
(PID.TID 0000.0001)     14 utts....sstrrssstuuuuuuuuuutt.........stttuutttttttuttttttuvvvvvvutsrqrrr.....vxxwwwwxwvwv
(PID.TID 0000.0001)     13 uuut....ttttttttuuuuuvtuuuuuu.........ttttuutttttttuutsssstttttstsqrqqppp....uwwwvuvvvutvv
(PID.TID 0000.0001)     12 ttttttttttttttttttttttssuuuuutuuut....tttttttttttsssssrrrrrrrqqqqqppppoo.....rvvuuttttttuu
(PID.TID 0000.0001)     11 rqsttttttttuuttttsssssrrstttttttsss..ttttts.tsssrrrrqqqqqppppoonnooooooo....oruttttsssrqrs
(PID.TID 0000.0001)     10 pppqrssrqqrqpqrssrrqqqqqqrrrrrrrrrrs.sssssr.rssrrqqpppppppooooonnnoooonn..moqrrrqqqqqqqqqq
(PID.TID 0000.0001)      9 oonooooooooonnnooooooooooppppppqqqqqrrrqrq.pppqqqqqppppppppppoooooooooll.lmoqqqqppooooopoo
(PID.TID 0000.0001)      8 nnnoonooooooonnnnnnnoooonoonoooppopqqqqqqqppopppqqqpppppppppppppppooopon.lnopppoooonnnnooo
(PID.TID 0000.0001)      7 ooooooooooopponnnooooooonnnnnonnooooooooopppppppoooooooooopppppppppoopqnnmnoooonnnonnnnnno
(PID.TID 0000.0001)      6 oooonnoonnnnooooooooooooonnnnnnnnnnnnnnnnoooopppooooooooooooooppppppppppoooooooonnnnnmnnnn
(PID.TID 0000.0001)      5 oooonnnnnnnnnnnnnnnnnoooooonnnnnnonnnnnnnnnoooooooooooonnnnnnooooooopoooonoooonnnnnnnooooo
(PID.TID 0000.0001)      4 oooonnnooonnnnnnnnnnnnnnoooooonnnooooonnnooooooooppponnnnmmmnnnnmnnoonnnnn..nnnooooooooooo
(PID.TID 0000.0001)      3 ooonnnnnnn............................nnoooooonnooooonnnnnnnoonnnnnnnnmmm..ooopooooooooooo
(PID.TID 0000.0001)      2 ..........................................pppooooonnnnnnoooppppo..nnnn.....qqqpppoooooo...
(PID.TID 0000.0001)      1 ..........................................................................................
(PID.TID 0000.0001) // =======================================================
(PID.TID 0000.0001) // END OF FIELD                                          =
(PID.TID 0000.0001) // =======================================================
(PID.TID 0000.0001) 
(PID.TID 0000.0001) Start initial hydrostatic pressure computation
(PID.TID 0000.0001) Pressure is predetermined for buoyancyRelation OCEANIC
(PID.TID 0000.0001) 
(PID.TID 0000.0001)  MDSREADVECTOR: opening file: tapelev3_1_the_main_loop_theta.it0000.001.001.data
(PID.TID 0000.0001)  MDS_READ_RL_VEC: irec =  00000001   00066240
(PID.TID 0000.0001)  MDSREADFIELD: opening file: xx_theta.0000000000.001.001.data
(PID.TID 0000.0001)  MDSREADFIELD: opening file: adxx_diffkr.0000000000.001.001.data
(PID.TID 0000.0001)  MDSREADFIELD: opening file: adxx_diffkr.0000000000.001.001.data
(PID.TID 0000.0001)  MDSREADFIELD: opening file: adxx_diffkr.0000000000.001.001.data
(PID.TID 0000.0001)  MDSREADFIELD: opening file: adxx_diffkr.0000000000.001.001.data
(PID.TID 0000.0001)  MDSREADFIELD: opening file: adxx_diffkr.0000000000.001.001.data
(PID.TID 0000.0001)  MDSREADFIELD: opening file: adxx_diffkr.0000000000.001.001.data
(PID.TID 0000.0001)  MDSREADFIELD: opening file: adxx_diffkr.0000000000.001.001.data
(PID.TID 0000.0001)  MDSREADFIELD: opening file: adxx_diffkr.0000000000.001.001.data
(PID.TID 0000.0001)  MDSREADFIELD: opening file: adxx_diffkr.0000000000.001.001.data
(PID.TID 0000.0001)  MDSREADFIELD: opening file: adxx_diffkr.0000000000.001.001.data
(PID.TID 0000.0001)  MDSREADFIELD: opening file: adxx_diffkr.0000000000.001.001.data
(PID.TID 0000.0001)  MDSREADFIELD: opening file: adxx_diffkr.0000000000.001.001.data
(PID.TID 0000.0001)  MDSREADFIELD: opening file: adxx_diffkr.0000000000.001.001.data
(PID.TID 0000.0001)  MDSREADFIELD: opening file: adxx_diffkr.0000000000.001.001.data
(PID.TID 0000.0001)  MDSREADFIELD: opening file: adxx_diffkr.0000000000.001.001.data
(PID.TID 0000.0001)  MDSREADFIELD: opening file: adxx_salt.0000000000.001.001.data
(PID.TID 0000.0001)  MDSREADFIELD: opening file: adxx_salt.0000000000.001.001.data
(PID.TID 0000.0001)  MDSREADFIELD: opening file: adxx_salt.0000000000.001.001.data
(PID.TID 0000.0001)  MDSREADFIELD: opening file: adxx_salt.0000000000.001.001.data
(PID.TID 0000.0001)  MDSREADFIELD: opening file: adxx_salt.0000000000.001.001.data
(PID.TID 0000.0001)  MDSREADFIELD: opening file: adxx_salt.0000000000.001.001.data
(PID.TID 0000.0001)  MDSREADFIELD: opening file: adxx_salt.0000000000.001.001.data
(PID.TID 0000.0001)  MDSREADFIELD: opening file: adxx_salt.0000000000.001.001.data
(PID.TID 0000.0001)  MDSREADFIELD: opening file: adxx_salt.0000000000.001.001.data
(PID.TID 0000.0001)  MDSREADFIELD: opening file: adxx_salt.0000000000.001.001.data
(PID.TID 0000.0001)  MDSREADFIELD: opening file: adxx_salt.0000000000.001.001.data
(PID.TID 0000.0001)  MDSREADFIELD: opening file: adxx_salt.0000000000.001.001.data
(PID.TID 0000.0001)  MDSREADFIELD: opening file: adxx_salt.0000000000.001.001.data
(PID.TID 0000.0001)  MDSREADFIELD: opening file: adxx_salt.0000000000.001.001.data
(PID.TID 0000.0001)  MDSREADFIELD: opening file: adxx_salt.0000000000.001.001.data
(PID.TID 0000.0001)  MDSREADFIELD: opening file: adxx_theta.0000000000.001.001.data
(PID.TID 0000.0001)  MDSREADFIELD: opening file: adxx_theta.0000000000.001.001.data
(PID.TID 0000.0001)  MDSREADFIELD: opening file: adxx_theta.0000000000.001.001.data
(PID.TID 0000.0001)  MDSREADFIELD: opening file: adxx_theta.0000000000.001.001.data
(PID.TID 0000.0001)  MDSREADFIELD: opening file: adxx_theta.0000000000.001.001.data
(PID.TID 0000.0001)  MDSREADFIELD: opening file: adxx_theta.0000000000.001.001.data
(PID.TID 0000.0001)  MDSREADFIELD: opening file: adxx_theta.0000000000.001.001.data
(PID.TID 0000.0001)  MDSREADFIELD: opening file: adxx_theta.0000000000.001.001.data
(PID.TID 0000.0001)  MDSREADFIELD: opening file: adxx_theta.0000000000.001.001.data
(PID.TID 0000.0001)  MDSREADFIELD: opening file: adxx_theta.0000000000.001.001.data
(PID.TID 0000.0001)  MDSREADFIELD: opening file: adxx_theta.0000000000.001.001.data
(PID.TID 0000.0001)  MDSREADFIELD: opening file: adxx_theta.0000000000.001.001.data
(PID.TID 0000.0001)  MDSREADFIELD: opening file: adxx_theta.0000000000.001.001.data
(PID.TID 0000.0001)  MDSREADFIELD: opening file: adxx_theta.0000000000.001.001.data
(PID.TID 0000.0001)  MDSREADFIELD: opening file: adxx_theta.0000000000.001.001.data
 ph-pack: unpacking ecco_cost
(PID.TID 0000.0001)  MDSREADFIELD_GL: opening file: hFacC.001.001.data
(PID.TID 0000.0001)  MDSREADFIELD_GL: opening file: adxx_theta.0000000000.001.001.data
(PID.TID 0000.0001)  MDSREADFIELD_GL: opening file: hFacC.001.001.data
(PID.TID 0000.0001)  MDSREADFIELD_GL: opening file: adxx_salt.0000000000.001.001.data
(PID.TID 0000.0001)  MDSREADFIELD_GL: opening file: hFacC.001.001.data
(PID.TID 0000.0001)  MDSREADFIELD_GL: opening file: adxx_hflux.0000000000.001.001.data
(PID.TID 0000.0001)  MDSREADFIELD_GL: opening file: hFacC.001.001.data
(PID.TID 0000.0001)  MDSREADFIELD_GL: opening file: adxx_sflux.0000000000.001.001.data
(PID.TID 0000.0001)  MDSREADFIELD_GL: opening file: maskW.001.001.data
(PID.TID 0000.0001)  MDSREADFIELD_GL: opening file: adxx_tauu.0000000000.001.001.data
(PID.TID 0000.0001)  MDSREADFIELD_GL: opening file: maskS.001.001.data
(PID.TID 0000.0001)  MDSREADFIELD_GL: opening file: adxx_tauv.0000000000.001.001.data
(PID.TID 0000.0001)  MDSREADFIELD_GL: opening file: hFacC.001.001.data
(PID.TID 0000.0001)  MDSREADFIELD_GL: opening file: adxx_diffkr.0000000000.001.001.data
 ph-check fcref =  -0.135436441
 grad-res -------------------------------
 grad-res  proc    #    i    j    k            fc ref        fc + eps        fc - eps
 grad-res  proc    #    i    j    k          adj grad         fd grad      1 - fd/adj
(PID.TID 0000.0001)  MDSREADFIELD: opening file: adxx_theta.0000000000.001.001.data
(PID.TID 0000.0001)  MDSREADFIELD: opening file: xx_theta.0000000000.001.001.data
(PID.TID 0000.0001) %MON surfExpanfCori_max           =   1.4226580169407E-04
(PID.TID 0000.0001) %MON surfExpanfCori_min           =  -1.4226580169407E-04
(PID.TID 0000.0001) %MON surfExpanfCori_mean          =   7.5291817533716E-23
(PID.TID 0000.0001) %MON surfExpanfCori_sd            =   9.6335367303778E-05
(PID.TID 0000.0001) %MON surfExpanfCoriG_max          =   1.4112379284621E-04
(PID.TID 0000.0001) %MON surfExpanfCoriG_min          =  -1.4323448157692E-04
(PID.TID 0000.0001) %MON surfExpanfCoriG_mean         =  -3.6726790147928E-06
(PID.TID 0000.0001) %MON surfExpanfCoriG_sd           =   9.7510077443652E-05
(PID.TID 0000.0001) %MON surfExpanfCoriCos_max        =   1.4535550371427E-04
(PID.TID 0000.0001) %MON surfExpanfCoriCos_min        =   3.0239529651320E-05
(PID.TID 0000.0001) %MON surfExpanfCoriCos_mean       =   1.0260497651149E-04
(PID.TID 0000.0001) %MON surfExpanfCoriCos_sd         =   3.6683828681187E-05
(PID.TID 0000.0001) // CG2D normalisation factor =          0.6568267742571170272718184E-04
(PID.TID 0000.0001) 
(PID.TID 0000.0001)  MDSREADFIELD: opening global file: lev_t.bin
(PID.TID 0000.0001) // =======================================================
(PID.TID 0000.0001) // Field Initial Temperature at iteration          1
(PID.TID 0000.0001) // CMIN =         -1.900000000000000E+00
(PID.TID 0000.0001) // CMAX =          2.973338890075684E+01
(PID.TID 0000.0001) // CINT =          1.171606996324327E+00
(PID.TID 0000.0001) // SYMBOLS (CMIN->CMAX): -abcdefghijklmnopqrstuvwxyz+
(PID.TID 0000.0001) //                  0.0: .
(PID.TID 0000.0001) // RANGE I (Lo:Hi:Step):(   1:  90:   1)
(PID.TID 0000.0001) // RANGE J (Lo:Hi:Step):(  40:   1:  -1)
(PID.TID 0000.0001) // RANGE K (Lo:Hi:Step):(   1:   1:   1)
(PID.TID 0000.0001) // =======================================================
(PID.TID 0000.0001) K =   1
(PID.TID 0000.0001)                I=10      I=20      I=30      I=40      I=50      I=60      I=70      I=80      I=90
(PID.TID 0000.0001) |--J--|123456789|123456789|123456789|123456789|123456789|123456789|123456789|123456789|123456789|
(PID.TID 0000.0001)     40 bccdd.baa----abdedd..................................................................bbbbb
(PID.TID 0000.0001)     39 ccdddddccbbbaa...ed.....................................................----........bbbbbb
(PID.TID 0000.0001)     38 fffgfedeedddc...........................................................-----......cbbbcde
(PID.TID 0000.0001)     37 ghh..................................................................bc...bbc...edeed.defg
(PID.TID 0000.0001)     36 hh.........................................ddcb....................dcccbabccdd.eefghhihhih
(PID.TID 0000.0001)     35 hh.................................aaab..dddeddd...ffggg...........ccc....ddeeeffghijjjjih
(PID.TID 0000.0001)     34 ...................................babb.deeeeeee.ffffgghh..................ccdffghijkkkj..
(PID.TID 0000.0001)     33 ....................................accdddeeeeefffffgghhiii.................bcfijkkllllkk.
(PID.TID 0000.0001)     32 ....................................bdddeffgffgghhhhhiiijjj................dccglmnmmmmlll.
(PID.TID 0000.0001)     31 ....................................fghiiiijjjjjjkkkkklllkk..............ikkjjmooooonnmm..
(PID.TID 0000.0001)     30 ...................................mmmnmmmmmmmmmmmmmnnnnnmm............moqrrrqrqqqpppooo..
(PID.TID 0000.0001)     29 .................................pqqqqqpppppppppoppoppppponm...........ssssssrrrrrqqqqpp..
(PID.TID 0000.0001)     28 ...............................prssssrrrsssrrrrrrrrrrrrrqqpoo.........uttssstssrssrrrqqq..
(PID.TID 0000.0001)     27 ..............vv..............stuttuuuuutuuuuuuuuuuttttssrrqqq...stuu.vvvuuuuutttttsss....
(PID.TID 0000.0001)     26 ..............vvv...........uuvvvvvwwwwwwwwvvvvvvvvvuuutttsssttv.uuvxxwwwwwwvvvvuuttsr....
(PID.TID 0000.0001)     25 ..............wwwx...xxx...vvvxxxxxyyxxxxxxxxxwwwwwvvvvvuuuuuvwwx...xxxxxxwwwwwwvvutsr....
(PID.TID 0000.0001)     24 ............wwwwxyy.xxyy...wxx.yyyyyyyyyyyxxxxxxxxwwwwwwwvvwwxxyywww.xxxxxxxxxxwwwvvur....
(PID.TID 0000.0001)     23 ............xxxyyyz.xyyy...xxx..yyyyzzyyyyyyyyxxxxxxxxxwwwwwxxxwwwwwx....vwxxxxwwwwwvu....
(PID.TID 0000.0001)     22 w...........xxyyyzyyyyyz...xx.yyzzzzzzzzzzzzzyyzyyyyyyxxwwxxxxwvvvwwxw......yyyyxxxxxxwxxw
(PID.TID 0000.0001)     21 xxx........xxxxyyzzzzzzz+.....zyzzzzzzz++zzzzyyyyyyyyxxwvvwwwwvvvvvvvu........yyyyyyyyyxxx
(PID.TID 0000.0001)     20 xww.......xyyyyxyyzzzzzz+......z.zzzzz+++zzzzzzyyyyyxxxxwvwxwvuuuuuuut.........yyyyxxxxwww
(PID.TID 0000.0001)     19 vvv.......yyyyxwwxyzyyzzzzz...zzz.....++++++z++z+zzzyyyyxxxxwwvvvvvvvu...........yyxxxwwww
(PID.TID 0000.0001)     18 uut.......zzyyywwxyzyyyyzzyzzzzzz...z+z++++zz+++++++zzzyyyyxxwwwvvvvvtt..........yyxxwvvwv
(PID.TID 0000.0001)     17 uus.......z.yyyyyyxyzzyyyyyyyzz.....yzzzzzzzzzzzzzzzzzzyyyyxxwwvuuvvuut.........yyyxxwttvu
(PID.TID 0000.0001)     16 utr......yy.zyyyyxxxxxxxwxxxxy.......yyyyyyyyyyyyyyyyyyyyyyyxxwvvvuuutts........xyyyxwvuuu
(PID.TID 0000.0001)     15 ttrr....xxx.xxxwxwwwwvwwvvvww.........xwxxxxxxxxxxxxxxxxxyyyxwwwvvuttssrr......wxxxxxwwvuu
(PID.TID 0000.0001)     14 ttsq....xyxwwxwvwwwvutuuuuuuu.........wwvwwwwvwvvwwwvwvvwwwwwwvvvuuutssrr.....vwwwwwwwvvvu
(PID.TID 0000.0001)     13 tttr....wwwvvvtttuuuutttssttt.........vvvuuuuuuutttttuuuuuvwwwuuuttttssrr....uvvvvvvvvvvut
(PID.TID 0000.0001)     12 sssssstttutssssrrrrrstrqqrrssqqrrq....uuttssssrrrrrrrrrrrstttssssrssrrqp.....uuuttssttssss
(PID.TID 0000.0001)     11 poprsssrqqqqqrqppooopqpoppppppppppp..sssrrr.rqpppqqqqppppqqqoppqqqqrqqpp....prsrqqqqqppppq
(PID.TID 0000.0001)     10 lllmoooonmnnmnnnnmmmmmmlmmlllmnnnnon.qqqppp.ppppppooooooooonmnnnonnooooo..nmoponnmnnnnnmll
(PID.TID 0000.0001)      9 ihhiiiihhhhhhiiihiiiiihhhiiiijjkkmnllnnnnn.mmmmnnnnmmmmnnmmlklllllklllll.mllmmllkjiijjihhi
(PID.TID 0000.0001)      8 eeeeeeeedefgggffeeffggffffggghiiiijjijklklkkkkkkkklllkkkkjjiiijkjjjjjjkj.kkjjiihggffffedde
(PID.TID 0000.0001)      7 cccccddeedddefeddddddddddefeefffffgggghiiiiiijjjihhgggghhhhhghhhhhhhiiiihiihhgfeddddddcccc
(PID.TID 0000.0001)      6 abbcccddcccccdddddccdddddddccddddddeeeeffggggghhgeddddddeeeeeeefggggghggggffeedccbbbbbbbba
(PID.TID 0000.0001)      5 bbbcccccccccccccccccccccbbccccdddddddcccddeeddeedcbbbbbbccccccdddeeeeeddddddccbbbbaaaaaaab
(PID.TID 0000.0001)      4 bbbbbbbaaabbbbbbbbbbbbaabbabbbbcbbbbbbbbbbbbbbbbbbbabbaaabbbbbbbbbbbbbbbbb..a--aaabbbaaabb
(PID.TID 0000.0001)      3 bbbbaaa-a-............................bbaaaaaaaaaaaaaaaaaaaaaaaaaaaaaaaab..aaaaaaaabbbaaaa
(PID.TID 0000.0001)      2 ..........................................baaaaaaaaaaaa-------aa..aaaa.....aaaaaaaaaaaa...
(PID.TID 0000.0001)      1 ..........................................................................................
(PID.TID 0000.0001) // =======================================================
(PID.TID 0000.0001) // END OF FIELD                                          =
(PID.TID 0000.0001) // =======================================================
(PID.TID 0000.0001) 
(PID.TID 0000.0001)  MDSREADFIELD: opening global file: lev_s.bin
(PID.TID 0000.0001) // =======================================================
(PID.TID 0000.0001) // Field Initial Salinity at iteration          1
(PID.TID 0000.0001) // CMIN =          2.975276947021484E+01
(PID.TID 0000.0001) // CMAX =          3.747562789916992E+01
(PID.TID 0000.0001) // CINT =          2.860317936650029E-01
(PID.TID 0000.0001) // SYMBOLS (CMIN->CMAX): -abcdefghijklmnopqrstuvwxyz+
(PID.TID 0000.0001) //                  0.0: .
(PID.TID 0000.0001) // RANGE I (Lo:Hi:Step):(   1:  90:   1)
(PID.TID 0000.0001) // RANGE J (Lo:Hi:Step):(  40:   1:  -1)
(PID.TID 0000.0001) // RANGE K (Lo:Hi:Step):(   1:   1:   1)
(PID.TID 0000.0001) // =======================================================
(PID.TID 0000.0001) K =   1
(PID.TID 0000.0001)                I=10      I=20      I=30      I=40      I=50      I=60      I=70      I=80      I=90
(PID.TID 0000.0001) |--J--|123456789|123456789|123456789|123456789|123456789|123456789|123456789|123456789|123456789|
(PID.TID 0000.0001)     40 qrrrr.oonnooopqtutt..................................................................mnnop
(PID.TID 0000.0001)     39 rssrrrrrrrqqpn...ut.....................................................mmmm........opqqqr
(PID.TID 0000.0001)     38 ssrrqqqqrrqpo...........................................................lkkll......onoqrrs
(PID.TID 0000.0001)     37 ssr..................................................................hg...lln...qppqr.rrrs
(PID.TID 0000.0001)     36 rr.........................................lkji....................feeegikmoop.pqrssssssss
(PID.TID 0000.0001)     35 rr.................................kkkk..lllllki...jijjj...........aa-....opqrrrrrrrssttss
(PID.TID 0000.0001)     34 ...................................jlll.kklllllk.ijkkkjih..................hlpqrqrrsstts..
(PID.TID 0000.0001)     33 ....................................iklkkkkkkkkkjkkjjjjjjii.................jmprrsstttttt.
(PID.TID 0000.0001)     32 ....................................iklllkllllllllkkkkkkkji................gilpstuuttuuut.
(PID.TID 0000.0001)     31 ....................................lmnonnnnoooonnmmmmllkjj..............loopqtvvvuuuuuu..
(PID.TID 0000.0001)     30 ...................................pppppppqqqqpppoooonnmlkk............ptvxwwvvwvvvvvvvu..
(PID.TID 0000.0001)     29 .................................pqqrqqqqqqrrrqqppqqqpponmll...........vxxxxxxwwwwwxwwxw..
(PID.TID 0000.0001)     28 ...............................prrrrrqqrrrrrsrrsrssssssrqonmm.........wxxxxxxxyyyyyyyyxx..
(PID.TID 0000.0001)     27 ..............xx..............prrrrrrrrrssssssstttssssssrqpoop...uwww.wwxxxyyy++zzzzyy....
(PID.TID 0000.0001)     26 ..............wxx...........ppqrrrrrrsssrrstsstttssrrrrrrrqppqqp.wwwvvwwwwwxyy+++zzyxw....
(PID.TID 0000.0001)     25 ..............wxxv...kkk...ooopqrrrrrssrrrrrrrssssqqpppppppppppoo...vvutuuvvwxyyyxxvvu....
(PID.TID 0000.0001)     24 ............uvvwwur.lmlk...nmm.pqqqqrrrrrqqqqrrqqrpppppooooonmmmnooo.uuuuuuttuvvvuvuut....
(PID.TID 0000.0001)     23 ............vvuvtqp.lmml...mln..ppppqpqppppppqpppppppppqppponnnnnoopm....xvuuuvvvvuuut....
(PID.TID 0000.0001)     22 r...........vuttsqqpnppn...mm.oppqqrrqqqqqqppppqqrrrqqqrrppppoopooomjj......uuvvvvvuttssrr
(PID.TID 0000.0001)     21 qmm........ttsssssssrsqon.....opqqqqqqqrrrrqqqssssssrrrrrrrrpqqqppomll........tvvvvuttssrr
(PID.TID 0000.0001)     20 sqq.......sttssrrsrrrrpol......p.qrqpqrrrrrrrstttttsssrrsssrqrrrrqqqpo.........wwwvvvuuutt
(PID.TID 0000.0001)     19 tsr.......ssssrrrrpppppnmmm...oqq.....qrqqsrrstttuuuttssttssrrssrrrrqq...........wwwvuvvvv
(PID.TID 0000.0001)     18 wut.......ssrrrrrqppppppppoooorrr...poqqqprrrttttuuutuuuuuutttttttutsss..........yyxwwxwxx
(PID.TID 0000.0001)     17 wwu.......s.rrrrrrqppppqqqqqqqr.....rrsrqrsssuusrtuuuvvvwwvvvuuuuutttss.........xyzyyyyxxx
(PID.TID 0000.0001)     16 vvt......ss.qrrssrqrqpqrrrrrrr.......ssrrstsstusrsuuuvwwwwxxwwvvvuttttsr........yz+zzzxwww
(PID.TID 0000.0001)     15 utss....stt.rrssstttsrrsrstsr.........ssstttssttsuuttuvvvvwxwwwwwuttsssrr......xyyyyxyyxwv
(PID.TID 0000.0001)     14 utts....sstrrssstuuuuuuuuuutt.........stttuutttttttuttttttuvvvvvvutsrqrrr.....vxxwwwwxwvwv
(PID.TID 0000.0001)     13 uuut....ttttttttuuuuuvtuuuuuu.........ttttuutttttttuutsssstttttstsqrqqppp....uwwwvuvvvutvv
(PID.TID 0000.0001)     12 ttttttttttttttttttttttssuuuuutuuut....tttttttttttsssssrrrrrrrqqqqqppppoo.....rvvuuttttttuu
(PID.TID 0000.0001)     11 rqsttttttttuuttttsssssrrstttttttsss..ttttts.tsssrrrrqqqqqppppoonnooooooo....oruttttsssrqrs
(PID.TID 0000.0001)     10 pppqrssrqqrqpqrssrrqqqqqqrrrrrrrrrrs.sssssr.rssrrqqpppppppooooonnnoooonn..moqrrrqqqqqqqqqq
(PID.TID 0000.0001)      9 oonooooooooonnnooooooooooppppppqqqqqrrrqrq.pppqqqqqppppppppppoooooooooll.lmoqqqqppooooopoo
(PID.TID 0000.0001)      8 nnnoonooooooonnnnnnnoooonoonoooppopqqqqqqqppopppqqqpppppppppppppppooopon.lnopppoooonnnnooo
(PID.TID 0000.0001)      7 ooooooooooopponnnooooooonnnnnonnooooooooopppppppoooooooooopppppppppoopqnnmnoooonnnonnnnnno
(PID.TID 0000.0001)      6 oooonnoonnnnooooooooooooonnnnnnnnnnnnnnnnoooopppooooooooooooooppppppppppoooooooonnnnnmnnnn
(PID.TID 0000.0001)      5 oooonnnnnnnnnnnnnnnnnoooooonnnnnnonnnnnnnnnoooooooooooonnnnnnooooooopoooonoooonnnnnnnooooo
(PID.TID 0000.0001)      4 oooonnnooonnnnnnnnnnnnnnoooooonnnooooonnnooooooooppponnnnmmmnnnnmnnoonnnnn..nnnooooooooooo
(PID.TID 0000.0001)      3 ooonnnnnnn............................nnoooooonnooooonnnnnnnoonnnnnnnnmmm..ooopooooooooooo
(PID.TID 0000.0001)      2 ..........................................pppooooonnnnnnoooppppo..nnnn.....qqqpppoooooo...
(PID.TID 0000.0001)      1 ..........................................................................................
(PID.TID 0000.0001) // =======================================================
(PID.TID 0000.0001) // END OF FIELD                                          =
(PID.TID 0000.0001) // =======================================================
(PID.TID 0000.0001) 
(PID.TID 0000.0001) Start initial hydrostatic pressure computation
(PID.TID 0000.0001) Pressure is predetermined for buoyancyRelation OCEANIC
(PID.TID 0000.0001) 
(PID.TID 0000.0001)  MDSREADFIELD: opening file: xx_theta.0000000000.001.001.data
(PID.TID 0000.0001)  MDSREADFIELD: opening file: xx_salt.0000000000.001.001.data
(PID.TID 0000.0001)  MDSREADFIELD: opening file: xx_diffkr.0000000000.001.001.data
(PID.TID 0000.0001)  MDSREADFIELD: opening global file: trenberth_taux.bin
(PID.TID 0000.0001)  MDSREADFIELD: opening global file: trenberth_tauy.bin
(PID.TID 0000.0001)  MDSREADFIELD: opening global file: ncep_qnet.bin
(PID.TID 0000.0001)  MDSREADFIELD: opening global file: lev_sst.bin
(PID.TID 0000.0001)  MDSREADFIELD: opening global file: lev_sss.bin
(PID.TID 0000.0001) // =======================================================
(PID.TID 0000.0001) // Model current state
(PID.TID 0000.0001) // =======================================================
(PID.TID 0000.0001) 
(PID.TID 0000.0001) // =======================================================
(PID.TID 0000.0001) // Begin MONITOR dynamic field statistics
(PID.TID 0000.0001) // =======================================================
(PID.TID 0000.0001) %MON time_tsnumber                =                     0
(PID.TID 0000.0001) %MON time_secondsf                =   0.0000000000000E+00
(PID.TID 0000.0001) %MON dynstat_eta_max              =   0.0000000000000E+00
(PID.TID 0000.0001) %MON dynstat_eta_min              =   0.0000000000000E+00
(PID.TID 0000.0001) %MON dynstat_eta_mean             =   0.0000000000000E+00
(PID.TID 0000.0001) %MON dynstat_eta_sd               =   0.0000000000000E+00
(PID.TID 0000.0001) %MON dynstat_eta_del2             =   0.0000000000000E+00
(PID.TID 0000.0001) %MON dynstat_uvel_max             =   0.0000000000000E+00
(PID.TID 0000.0001) %MON dynstat_uvel_min             =   0.0000000000000E+00
(PID.TID 0000.0001) %MON dynstat_uvel_mean            =   0.0000000000000E+00
(PID.TID 0000.0001) %MON dynstat_uvel_sd              =   0.0000000000000E+00
(PID.TID 0000.0001) %MON dynstat_uvel_del2            =   0.0000000000000E+00
(PID.TID 0000.0001) %MON dynstat_vvel_max             =   0.0000000000000E+00
(PID.TID 0000.0001) %MON dynstat_vvel_min             =   0.0000000000000E+00
(PID.TID 0000.0001) %MON dynstat_vvel_mean            =   0.0000000000000E+00
(PID.TID 0000.0001) %MON dynstat_vvel_sd              =   0.0000000000000E+00
(PID.TID 0000.0001) %MON dynstat_vvel_del2            =   0.0000000000000E+00
(PID.TID 0000.0001) %MON dynstat_wvel_max             =   0.0000000000000E+00
(PID.TID 0000.0001) %MON dynstat_wvel_min             =   0.0000000000000E+00
(PID.TID 0000.0001) %MON dynstat_wvel_mean            =   0.0000000000000E+00
(PID.TID 0000.0001) %MON dynstat_wvel_sd              =   0.0000000000000E+00
(PID.TID 0000.0001) %MON dynstat_wvel_del2            =   0.0000000000000E+00
(PID.TID 0000.0001) %MON dynstat_theta_max            =   2.9733388900757E+01
(PID.TID 0000.0001) %MON dynstat_theta_min            =  -1.9000000000000E+00
(PID.TID 0000.0001) %MON dynstat_theta_mean           =   3.6197074872154E+00
(PID.TID 0000.0001) %MON dynstat_theta_sd             =   4.4174614344707E+00
(PID.TID 0000.0001) %MON dynstat_theta_del2           =   1.5097318825836E-01
(PID.TID 0000.0001) %MON dynstat_salt_max             =   3.7475627899170E+01
(PID.TID 0000.0001) %MON dynstat_salt_min             =   2.9752769470215E+01
(PID.TID 0000.0001) %MON dynstat_salt_mean            =   3.4718006161475E+01
(PID.TID 0000.0001) %MON dynstat_salt_sd              =   2.9628819587990E-01
(PID.TID 0000.0001) %MON dynstat_salt_del2            =   2.6251884861846E-02
(PID.TID 0000.0001) %MON advcfl_uvel_max              =   0.0000000000000E+00
(PID.TID 0000.0001) %MON advcfl_vvel_max              =   0.0000000000000E+00
(PID.TID 0000.0001) %MON advcfl_wvel_max              =   0.0000000000000E+00
(PID.TID 0000.0001) %MON advcfl_W_hf_max              =   0.0000000000000E+00
(PID.TID 0000.0001) %MON pe_b_mean                    =   0.0000000000000E+00
(PID.TID 0000.0001) %MON ke_max                       =   0.0000000000000E+00
(PID.TID 0000.0001) %MON ke_mean                      =   0.0000000000000E+00
(PID.TID 0000.0001) %MON ke_vol                       =   1.3226782436723E+18
(PID.TID 0000.0001) %MON vort_r_min                   =   0.0000000000000E+00
(PID.TID 0000.0001) %MON vort_r_max                   =   0.0000000000000E+00
(PID.TID 0000.0001) %MON vort_a_mean                  =  -2.5205769728595E-05
(PID.TID 0000.0001) %MON vort_a_sd                    =   7.3403301351718E-05
(PID.TID 0000.0001) %MON vort_p_mean                  =  -3.1758669979758E-05
(PID.TID 0000.0001) %MON vort_p_sd                    =   1.3126616755304E-04
(PID.TID 0000.0001) %MON surfExpan_theta_mean         =   0.0000000000000E+00
(PID.TID 0000.0001) %MON surfExpan_salt_mean          =   0.0000000000000E+00
(PID.TID 0000.0001) // =======================================================
(PID.TID 0000.0001) // End MONITOR dynamic field statistics
(PID.TID 0000.0001) // =======================================================
 S/R EXTERNAL_FIELDS_LOAD: Reading new data  0. 0
(PID.TID 0000.0001)  MDSREADFIELD: opening global file: trenberth_taux.bin
(PID.TID 0000.0001)  MDSREADFIELD: opening global file: trenberth_taux.bin
(PID.TID 0000.0001)  MDSREADFIELD: opening global file: trenberth_tauy.bin
(PID.TID 0000.0001)  MDSREADFIELD: opening global file: trenberth_tauy.bin
(PID.TID 0000.0001)  MDSREADFIELD: opening global file: ncep_qnet.bin
(PID.TID 0000.0001)  MDSREADFIELD: opening global file: ncep_qnet.bin
(PID.TID 0000.0001)  MDSREADFIELD: opening global file: lev_sst.bin
(PID.TID 0000.0001)  MDSREADFIELD: opening global file: lev_sst.bin
(PID.TID 0000.0001)  MDSREADFIELD: opening global file: lev_sss.bin
(PID.TID 0000.0001)  MDSREADFIELD: opening global file: lev_sss.bin
time,SST,SSS,fu,fv,Q,E-P,i0,i1,a,b =   0.0000E+00  5.3151E-02  3.4364E+01 -4.0500E-02 -6.3753E-02  2.6510E+02  0.0000E+00    12     1  5.0000E-01  5.0000E-01
time,fu0,fu1,fu =   0.0000E+00 -4.5368E-02 -3.5633E-02 -4.0500E-02  5.0000E-01  5.0000E-01
(PID.TID 0000.0001)  MDSREADFIELD: opening file: xx_tauu.0000000000.001.001.data
(PID.TID 0000.0001)  MDSREADFIELD: opening file: xx_tauv.0000000000.001.001.data
(PID.TID 0000.0001)  MDSREADFIELD: opening file: xx_sflux.0000000000.001.001.data
(PID.TID 0000.0001)  MDSREADFIELD: opening file: xx_hflux.0000000000.001.001.data
 cg2d: Sum(rhs),rhsMax =  -5.55111512312578E-17  2.51126027825716E+00
(PID.TID 0000.0001)                    cg2d_init_res =    6.25921682577574E+00
(PID.TID 0000.0001)                       cg2d_iters =    26
(PID.TID 0000.0001)                         cg2d_res =    4.96600288113705E-14
(PID.TID 0000.0001) // =======================================================
(PID.TID 0000.0001) // Begin MONITOR dynamic field statistics
(PID.TID 0000.0001) // =======================================================
(PID.TID 0000.0001) %MON time_tsnumber                =                     1
(PID.TID 0000.0001) %MON time_secondsf                =   4.3200000000000E+04
(PID.TID 0000.0001) %MON dynstat_eta_max              =   1.7542736336611E-01
(PID.TID 0000.0001) %MON dynstat_eta_min              =  -1.1671969011691E-01
(PID.TID 0000.0001) %MON dynstat_eta_mean             =  -7.3089494392429E-19
(PID.TID 0000.0001) %MON dynstat_eta_sd               =   2.6179446550884E-02
(PID.TID 0000.0001) %MON dynstat_eta_del2             =   1.1613845782189E-02
(PID.TID 0000.0001) %MON dynstat_uvel_max             =   8.0529522933638E-03
(PID.TID 0000.0001) %MON dynstat_uvel_min             =  -7.6333376275251E-03
(PID.TID 0000.0001) %MON dynstat_uvel_mean            =  -1.5724929437377E-04
(PID.TID 0000.0001) %MON dynstat_uvel_sd              =   1.2330585506868E-03
(PID.TID 0000.0001) %MON dynstat_uvel_del2            =   4.1962615092226E-04
(PID.TID 0000.0001) %MON dynstat_vvel_max             =   1.8131688034986E-02
(PID.TID 0000.0001) %MON dynstat_vvel_min             =  -1.1104627631651E-02
(PID.TID 0000.0001) %MON dynstat_vvel_mean            =   9.0141406900186E-04
(PID.TID 0000.0001) %MON dynstat_vvel_sd              =   3.3812266135291E-03
(PID.TID 0000.0001) %MON dynstat_vvel_del2            =   5.2106642114655E-04
(PID.TID 0000.0001) %MON dynstat_wvel_max             =   1.5731556153468E-04
(PID.TID 0000.0001) %MON dynstat_wvel_min             =  -1.0461247926497E-04
(PID.TID 0000.0001) %MON dynstat_wvel_mean            =  -3.1003629227504E-22
(PID.TID 0000.0001) %MON dynstat_wvel_sd              =   1.6753162017403E-05
(PID.TID 0000.0001) %MON dynstat_wvel_del2            =   8.7872726346247E-06
(PID.TID 0000.0001) %MON dynstat_theta_max            =   2.9714151773427E+01
(PID.TID 0000.0001) %MON dynstat_theta_min            =  -1.9006688327720E+00
(PID.TID 0000.0001) %MON dynstat_theta_mean           =   3.6192176825278E+00
(PID.TID 0000.0001) %MON dynstat_theta_sd             =   4.4160463846993E+00
(PID.TID 0000.0001) %MON dynstat_theta_del2           =   1.5011474994548E-01
(PID.TID 0000.0001) %MON dynstat_salt_max             =   3.7470483222390E+01
(PID.TID 0000.0001) %MON dynstat_salt_min             =   2.9754996047611E+01
(PID.TID 0000.0001) %MON dynstat_salt_mean            =   3.4717966947508E+01
(PID.TID 0000.0001) %MON dynstat_salt_sd              =   2.9615546782298E-01
(PID.TID 0000.0001) %MON dynstat_salt_del2            =   2.6383451205265E-02
(PID.TID 0000.0001) %MON advcfl_uvel_max              =   2.7847836032001E-03
(PID.TID 0000.0001) %MON advcfl_vvel_max              =   1.7613480939415E-03
(PID.TID 0000.0001) %MON advcfl_wvel_max              =   2.5261540324720E-01
(PID.TID 0000.0001) %MON advcfl_W_hf_max              =   2.5633166678463E-01
(PID.TID 0000.0001) %MON pe_b_mean                    =   8.7700510687206E-07
(PID.TID 0000.0001) %MON ke_max                       =   1.2189599970725E-04
(PID.TID 0000.0001) %MON ke_mean                      =   6.1994153229764E-06
(PID.TID 0000.0001) %MON ke_vol                       =   1.3226782436723E+18
(PID.TID 0000.0001) %MON vort_r_min                   =  -6.1330304033461E-08
(PID.TID 0000.0001) %MON vort_r_max                   =   6.1580160380184E-08
(PID.TID 0000.0001) %MON vort_a_mean                  =  -2.5205769360242E-05
(PID.TID 0000.0001) %MON vort_a_sd                    =   7.3403259512183E-05
(PID.TID 0000.0001) %MON vort_p_mean                  =  -3.1758669515642E-05
(PID.TID 0000.0001) %MON vort_p_sd                    =   1.3126622607299E-04
(PID.TID 0000.0001) %MON surfExpan_theta_mean         =   4.5922974370635E-05
(PID.TID 0000.0001) %MON surfExpan_salt_mean          =   3.4898923268248E-06
(PID.TID 0000.0001) // =======================================================
(PID.TID 0000.0001) // End MONITOR dynamic field statistics
(PID.TID 0000.0001) // =======================================================
time,SST,SSS,fu,fv,Q,E-P,i0,i1,a,b =   4.3200E+04  8.3327E-02  3.4375E+01 -4.0338E-02 -6.3536E-02  2.6512E+02  0.0000E+00    12     1  5.1667E-01  4.8333E-01
time,fu0,fu1,fu =   4.3200E+04 -4.5368E-02 -3.5633E-02 -4.0338E-02  5.1667E-01  4.8333E-01
 cg2d: Sum(rhs),rhsMax =   2.95596880306448E-15  4.88048471044203E+00
(PID.TID 0000.0001)                    cg2d_init_res =    3.38567973875432E+00
(PID.TID 0000.0001)                       cg2d_iters =    26
(PID.TID 0000.0001)                         cg2d_res =    3.27664089083440E-14
(PID.TID 0000.0001) // =======================================================
(PID.TID 0000.0001) // Begin MONITOR dynamic field statistics
(PID.TID 0000.0001) // =======================================================
(PID.TID 0000.0001) %MON time_tsnumber                =                     2
(PID.TID 0000.0001) %MON time_secondsf                =   8.6400000000000E+04
(PID.TID 0000.0001) %MON dynstat_eta_max              =   3.6642075205993E-01
(PID.TID 0000.0001) %MON dynstat_eta_min              =  -2.5542812926271E-01
(PID.TID 0000.0001) %MON dynstat_eta_mean             =   9.2197100000357E-18
(PID.TID 0000.0001) %MON dynstat_eta_sd               =   5.9802419696936E-02
(PID.TID 0000.0001) %MON dynstat_eta_del2             =   2.2181088379231E-02
(PID.TID 0000.0001) %MON dynstat_uvel_max             =   1.8742617413914E-02
(PID.TID 0000.0001) %MON dynstat_uvel_min             =  -1.7008757434475E-02
(PID.TID 0000.0001) %MON dynstat_uvel_mean            =  -6.1812267408613E-04
(PID.TID 0000.0001) %MON dynstat_uvel_sd              =   2.0365421726012E-03
(PID.TID 0000.0001) %MON dynstat_uvel_del2            =   7.7147806049080E-04
(PID.TID 0000.0001) %MON dynstat_vvel_max             =   3.3070086703986E-02
(PID.TID 0000.0001) %MON dynstat_vvel_min             =  -1.7823710906559E-02
(PID.TID 0000.0001) %MON dynstat_vvel_mean            =   1.7749222373378E-03
(PID.TID 0000.0001) %MON dynstat_vvel_sd              =   6.2103816480674E-03
(PID.TID 0000.0001) %MON dynstat_vvel_del2            =   9.3438728173647E-04
(PID.TID 0000.0001) %MON dynstat_wvel_max             =   2.0185420699784E-04
(PID.TID 0000.0001) %MON dynstat_wvel_min             =  -1.4619082137608E-04
(PID.TID 0000.0001) %MON dynstat_wvel_mean            =  -7.0566204827911E-23
(PID.TID 0000.0001) %MON dynstat_wvel_sd              =   2.3946387290624E-05
(PID.TID 0000.0001) %MON dynstat_wvel_del2            =   9.7964859877261E-06
(PID.TID 0000.0001) %MON dynstat_theta_max            =   2.9695250203754E+01
(PID.TID 0000.0001) %MON dynstat_theta_min            =  -1.9046704676168E+00
(PID.TID 0000.0001) %MON dynstat_theta_mean           =   3.6180451808965E+00
(PID.TID 0000.0001) %MON dynstat_theta_sd             =   4.4133958411076E+00
(PID.TID 0000.0001) %MON dynstat_theta_del2           =   1.4858801903316E-01
(PID.TID 0000.0001) %MON dynstat_salt_max             =   3.7465922104459E+01
(PID.TID 0000.0001) %MON dynstat_salt_min             =   2.9758319089739E+01
(PID.TID 0000.0001) %MON dynstat_salt_mean            =   3.4717870437876E+01
(PID.TID 0000.0001) %MON dynstat_salt_sd              =   2.9608252734619E-01
(PID.TID 0000.0001) %MON dynstat_salt_del2            =   2.6460099520033E-02
(PID.TID 0000.0001) %MON advcfl_uvel_max              =   5.1989943937369E-03
(PID.TID 0000.0001) %MON advcfl_vvel_max              =   3.2124937330796E-03
(PID.TID 0000.0001) %MON advcfl_wvel_max              =   2.7503047971909E-01
(PID.TID 0000.0001) %MON advcfl_W_hf_max              =   2.8566390214195E-01
(PID.TID 0000.0001) %MON pe_b_mean                    =   4.5763445344646E-06
(PID.TID 0000.0001) %MON ke_max                       =   4.0262905102485E-04
(PID.TID 0000.0001) %MON ke_mean                      =   2.0787429649578E-05
(PID.TID 0000.0001) %MON ke_vol                       =   1.3226782436723E+18
(PID.TID 0000.0001) %MON vort_r_min                   =  -1.0591157172300E-07
(PID.TID 0000.0001) %MON vort_r_max                   =   1.2116719173647E-07
(PID.TID 0000.0001) %MON vort_a_mean                  =  -2.5205769260570E-05
(PID.TID 0000.0001) %MON vort_a_sd                    =   7.3403162844136E-05
(PID.TID 0000.0001) %MON vort_p_mean                  =  -3.1758669390057E-05
(PID.TID 0000.0001) %MON vort_p_sd                    =   1.3126606566356E-04
(PID.TID 0000.0001) %MON surfExpan_theta_mean         =   8.3423163169791E-05
(PID.TID 0000.0001) %MON surfExpan_salt_mean          =   6.6892888837990E-06
(PID.TID 0000.0001) // =======================================================
(PID.TID 0000.0001) // End MONITOR dynamic field statistics
(PID.TID 0000.0001) // =======================================================
time,SST,SSS,fu,fv,Q,E-P,i0,i1,a,b =   8.6400E+04  1.1350E-01  3.4387E+01 -4.0176E-02 -6.3320E-02  2.6514E+02  0.0000E+00    12     1  5.3333E-01  4.6667E-01
time,fu0,fu1,fu =   8.6400E+04 -4.5368E-02 -3.5633E-02 -4.0176E-02  5.3333E-01  4.6667E-01
 cg2d: Sum(rhs),rhsMax =  -1.69170233377258E-14  6.23803641968524E+00
(PID.TID 0000.0001)                    cg2d_init_res =    2.21964832551238E+00
(PID.TID 0000.0001)                       cg2d_iters =    26
(PID.TID 0000.0001)                         cg2d_res =    2.85735446648462E-14
(PID.TID 0000.0001) // =======================================================
(PID.TID 0000.0001) // Begin MONITOR dynamic field statistics
(PID.TID 0000.0001) // =======================================================
(PID.TID 0000.0001) %MON time_tsnumber                =                     3
(PID.TID 0000.0001) %MON time_secondsf                =   1.2960000000000E+05
(PID.TID 0000.0001) %MON dynstat_eta_max              =   5.0447743753974E-01
(PID.TID 0000.0001) %MON dynstat_eta_min              =  -3.8122928124753E-01
(PID.TID 0000.0001) %MON dynstat_eta_mean             =  -1.4285703549480E-17
(PID.TID 0000.0001) %MON dynstat_eta_sd               =   9.2514852243851E-02
(PID.TID 0000.0001) %MON dynstat_eta_del2             =   2.7904915516576E-02
(PID.TID 0000.0001) %MON dynstat_uvel_max             =   3.0748714608840E-02
(PID.TID 0000.0001) %MON dynstat_uvel_min             =  -2.9887612427394E-02
(PID.TID 0000.0001) %MON dynstat_uvel_mean            =  -1.2347564356484E-03
(PID.TID 0000.0001) %MON dynstat_uvel_sd              =   2.8304407037283E-03
(PID.TID 0000.0001) %MON dynstat_uvel_del2            =   1.1349444411127E-03
(PID.TID 0000.0001) %MON dynstat_vvel_max             =   4.3827495820777E-02
(PID.TID 0000.0001) %MON dynstat_vvel_min             =  -2.5545918432184E-02
(PID.TID 0000.0001) %MON dynstat_vvel_mean            =   2.5728332851467E-03
(PID.TID 0000.0001) %MON dynstat_vvel_sd              =   8.5401775806053E-03
(PID.TID 0000.0001) %MON dynstat_vvel_del2            =   1.3456992333533E-03
(PID.TID 0000.0001) %MON dynstat_wvel_max             =   1.9966320236139E-04
(PID.TID 0000.0001) %MON dynstat_wvel_min             =  -1.7215302213926E-04
(PID.TID 0000.0001) %MON dynstat_wvel_mean            =  -9.4836262995941E-22
(PID.TID 0000.0001) %MON dynstat_wvel_sd              =   2.6852357531531E-05
(PID.TID 0000.0001) %MON dynstat_wvel_del2            =   8.6463596838486E-06
(PID.TID 0000.0001) %MON dynstat_theta_max            =   2.9693876913640E+01
(PID.TID 0000.0001) %MON dynstat_theta_min            =  -1.9165848424527E+00
(PID.TID 0000.0001) %MON dynstat_theta_mean           =   3.6166050502765E+00
(PID.TID 0000.0001) %MON dynstat_theta_sd             =   4.4102950957512E+00
(PID.TID 0000.0001) %MON dynstat_theta_del2           =   1.4734432291560E-01
(PID.TID 0000.0001) %MON dynstat_salt_max             =   3.7461480469125E+01
(PID.TID 0000.0001) %MON dynstat_salt_min             =   2.9762089295090E+01
(PID.TID 0000.0001) %MON dynstat_salt_mean            =   3.4717748756370E+01
(PID.TID 0000.0001) %MON dynstat_salt_sd              =   2.9607393343980E-01
(PID.TID 0000.0001) %MON dynstat_salt_del2            =   2.6366190106374E-02
(PID.TID 0000.0001) %MON advcfl_uvel_max              =   6.3252572287560E-03
(PID.TID 0000.0001) %MON advcfl_vvel_max              =   4.2574897647259E-03
(PID.TID 0000.0001) %MON advcfl_wvel_max              =   2.0873391356049E-01
(PID.TID 0000.0001) %MON advcfl_W_hf_max              =   2.1768957936022E-01
(PID.TID 0000.0001) %MON pe_b_mean                    =   1.0952269434999E-05
(PID.TID 0000.0001) %MON ke_max                       =   7.4676338471534E-04
(PID.TID 0000.0001) %MON ke_mean                      =   4.0047682486443E-05
(PID.TID 0000.0001) %MON ke_vol                       =   1.3226782436723E+18
(PID.TID 0000.0001) %MON vort_r_min                   =  -1.5301597332276E-07
(PID.TID 0000.0001) %MON vort_r_max                   =   1.7605569372210E-07
(PID.TID 0000.0001) %MON vort_a_mean                  =  -2.5205769243887E-05
(PID.TID 0000.0001) %MON vort_a_sd                    =   7.3403039694985E-05
(PID.TID 0000.0001) %MON vort_p_mean                  =  -3.1758669369038E-05
(PID.TID 0000.0001) %MON vort_p_sd                    =   1.3126579822738E-04
(PID.TID 0000.0001) %MON surfExpan_theta_mean         =   1.1255485057341E-04
(PID.TID 0000.0001) %MON surfExpan_salt_mean          =   9.2738976831449E-06
(PID.TID 0000.0001) // =======================================================
(PID.TID 0000.0001) // End MONITOR dynamic field statistics
(PID.TID 0000.0001) // =======================================================
time,SST,SSS,fu,fv,Q,E-P,i0,i1,a,b =   1.2960E+05  1.4368E-01  3.4399E+01 -4.0014E-02 -6.3103E-02  2.6516E+02  0.0000E+00    12     1  5.5000E-01  4.5000E-01
time,fu0,fu1,fu =   1.2960E+05 -4.5368E-02 -3.5633E-02 -4.0014E-02  5.5000E-01  4.5000E-01
 cg2d: Sum(rhs),rhsMax =  -3.21583037976580E-14  6.79014299228628E+00
(PID.TID 0000.0001)                    cg2d_init_res =    1.84397152348986E+00
(PID.TID 0000.0001)                       cg2d_iters =    26
(PID.TID 0000.0001)                         cg2d_res =    2.55763807670426E-14
(PID.TID 0000.0001) // =======================================================
(PID.TID 0000.0001) // Begin MONITOR dynamic field statistics
(PID.TID 0000.0001) // =======================================================
(PID.TID 0000.0001) %MON time_tsnumber                =                     4
(PID.TID 0000.0001) %MON time_secondsf                =   1.7280000000000E+05
(PID.TID 0000.0001) %MON dynstat_eta_max              =   5.8744280224194E-01
(PID.TID 0000.0001) %MON dynstat_eta_min              =  -4.9922435240599E-01
(PID.TID 0000.0001) %MON dynstat_eta_mean             =  -4.9390483536706E-18
(PID.TID 0000.0001) %MON dynstat_eta_sd               =   1.2282110689347E-01
(PID.TID 0000.0001) %MON dynstat_eta_del2             =   2.9664536581514E-02
(PID.TID 0000.0001) %MON dynstat_uvel_max             =   4.3275845499344E-02
(PID.TID 0000.0001) %MON dynstat_uvel_min             =  -4.2470479735484E-02
(PID.TID 0000.0001) %MON dynstat_uvel_mean            =  -1.9743372290378E-03
(PID.TID 0000.0001) %MON dynstat_uvel_sd              =   3.7660681219601E-03
(PID.TID 0000.0001) %MON dynstat_uvel_del2            =   1.4942870235788E-03
(PID.TID 0000.0001) %MON dynstat_vvel_max             =   5.0865239621537E-02
(PID.TID 0000.0001) %MON dynstat_vvel_min             =  -3.7807952789697E-02
(PID.TID 0000.0001) %MON dynstat_vvel_mean            =   3.2826063418552E-03
(PID.TID 0000.0001) %MON dynstat_vvel_sd              =   1.0483838759684E-02
(PID.TID 0000.0001) %MON dynstat_vvel_del2            =   1.7640692561948E-03
(PID.TID 0000.0001) %MON dynstat_wvel_max             =   1.9909629511443E-04
(PID.TID 0000.0001) %MON dynstat_wvel_min             =  -2.0243042163513E-04
(PID.TID 0000.0001) %MON dynstat_wvel_mean            =  -9.9767731094969E-22
(PID.TID 0000.0001) %MON dynstat_wvel_sd              =   2.8700892706846E-05
(PID.TID 0000.0001) %MON dynstat_wvel_del2            =   8.2544056875154E-06
(PID.TID 0000.0001) %MON dynstat_theta_max            =   2.9706174523039E+01
(PID.TID 0000.0001) %MON dynstat_theta_min            =  -1.9336756604132E+00
(PID.TID 0000.0001) %MON dynstat_theta_mean           =   3.6149643577195E+00
(PID.TID 0000.0001) %MON dynstat_theta_sd             =   4.4067800691434E+00
(PID.TID 0000.0001) %MON dynstat_theta_del2           =   1.4653353018342E-01
(PID.TID 0000.0001) %MON dynstat_salt_max             =   3.7457127798715E+01
(PID.TID 0000.0001) %MON dynstat_salt_min             =   2.9766149544949E+01
(PID.TID 0000.0001) %MON dynstat_salt_mean            =   3.4717609911384E+01
(PID.TID 0000.0001) %MON dynstat_salt_sd              =   2.9605659690904E-01
(PID.TID 0000.0001) %MON dynstat_salt_del2            =   2.6253513777229E-02
(PID.TID 0000.0001) %MON advcfl_uvel_max              =   8.9567892640533E-03
(PID.TID 0000.0001) %MON advcfl_vvel_max              =   4.9411501390495E-03
(PID.TID 0000.0001) %MON advcfl_wvel_max              =   2.3259770991650E-01
(PID.TID 0000.0001) %MON advcfl_W_hf_max              =   2.3267734139935E-01
(PID.TID 0000.0001) %MON pe_b_mean                    =   1.9303106830658E-05
(PID.TID 0000.0001) %MON ke_max                       =   1.1227686633432E-03
(PID.TID 0000.0001) %MON ke_mean                      =   6.2396004463353E-05
(PID.TID 0000.0001) %MON ke_vol                       =   1.3226782436723E+18
(PID.TID 0000.0001) %MON vort_r_min                   =  -2.0273078629522E-07
(PID.TID 0000.0001) %MON vort_r_max                   =   2.2565138479114E-07
(PID.TID 0000.0001) %MON vort_a_mean                  =  -2.5205769220858E-05
(PID.TID 0000.0001) %MON vort_a_sd                    =   7.3402896496059E-05
(PID.TID 0000.0001) %MON vort_p_mean                  =  -3.1758669340022E-05
(PID.TID 0000.0001) %MON vort_p_sd                    =   1.3126543256026E-04
(PID.TID 0000.0001) %MON surfExpan_theta_mean         =   1.3465264066236E-04
(PID.TID 0000.0001) %MON surfExpan_salt_mean          =   1.1193488886945E-05
(PID.TID 0000.0001) // =======================================================
(PID.TID 0000.0001) // End MONITOR dynamic field statistics
(PID.TID 0000.0001) // =======================================================
time,SST,SSS,fu,fv,Q,E-P,i0,i1,a,b =   1.7280E+05  1.7385E-01  3.4410E+01 -3.9851E-02 -6.2886E-02  2.6519E+02  0.0000E+00    12     1  5.6667E-01  4.3333E-01
time,fu0,fu1,fu =   1.7280E+05 -4.5368E-02 -3.5633E-02 -3.9851E-02  5.6667E-01  4.3333E-01
 cg2d: Sum(rhs),rhsMax =  -1.31856331408997E-14  6.92874107573640E+00
(PID.TID 0000.0001)                    cg2d_init_res =    1.75169692964235E+00
(PID.TID 0000.0001)                       cg2d_iters =    26
(PID.TID 0000.0001)                         cg2d_res =    2.59803651063576E-14
(PID.TID 0000.0001) // =======================================================
(PID.TID 0000.0001) // Begin MONITOR dynamic field statistics
(PID.TID 0000.0001) // =======================================================
(PID.TID 0000.0001) %MON time_tsnumber                =                     5
(PID.TID 0000.0001) %MON time_secondsf                =   2.1600000000000E+05
(PID.TID 0000.0001) %MON dynstat_eta_max              =   6.3271088691646E-01
(PID.TID 0000.0001) %MON dynstat_eta_min              =  -5.7992542718444E-01
(PID.TID 0000.0001) %MON dynstat_eta_mean             =   5.3717413906433E-17
(PID.TID 0000.0001) %MON dynstat_eta_sd               =   1.5134274058250E-01
(PID.TID 0000.0001) %MON dynstat_eta_del2             =   2.9337525287775E-02
(PID.TID 0000.0001) %MON dynstat_uvel_max             =   5.5843085399552E-02
(PID.TID 0000.0001) %MON dynstat_uvel_min             =  -5.3444186272245E-02
(PID.TID 0000.0001) %MON dynstat_uvel_mean            =  -2.8074349383677E-03
(PID.TID 0000.0001) %MON dynstat_uvel_sd              =   4.8414577123316E-03
(PID.TID 0000.0001) %MON dynstat_uvel_del2            =   1.8312468867994E-03
(PID.TID 0000.0001) %MON dynstat_vvel_max             =   5.7021703108535E-02
(PID.TID 0000.0001) %MON dynstat_vvel_min             =  -4.9872134663510E-02
(PID.TID 0000.0001) %MON dynstat_vvel_mean            =   3.8899426428278E-03
(PID.TID 0000.0001) %MON dynstat_vvel_sd              =   1.2085737851162E-02
(PID.TID 0000.0001) %MON dynstat_vvel_del2            =   2.1605253106682E-03
(PID.TID 0000.0001) %MON dynstat_wvel_max             =   2.2883633640988E-04
(PID.TID 0000.0001) %MON dynstat_wvel_min             =  -2.3869685302407E-04
(PID.TID 0000.0001) %MON dynstat_wvel_mean            =   1.1088720131911E-21
(PID.TID 0000.0001) %MON dynstat_wvel_sd              =   3.0511636817305E-05
(PID.TID 0000.0001) %MON dynstat_wvel_del2            =   8.9710500375169E-06
(PID.TID 0000.0001) %MON dynstat_theta_max            =   2.9720537578616E+01
(PID.TID 0000.0001) %MON dynstat_theta_min            =  -1.9541377379959E+00
(PID.TID 0000.0001) %MON dynstat_theta_mean           =   3.6131852087675E+00
(PID.TID 0000.0001) %MON dynstat_theta_sd             =   4.4029374257418E+00
(PID.TID 0000.0001) %MON dynstat_theta_del2           =   1.4585453295868E-01
(PID.TID 0000.0001) %MON dynstat_salt_max             =   3.7452892733702E+01
(PID.TID 0000.0001) %MON dynstat_salt_min             =   2.9770341301067E+01
(PID.TID 0000.0001) %MON dynstat_salt_mean            =   3.4717460594604E+01
(PID.TID 0000.0001) %MON dynstat_salt_sd              =   2.9603661184108E-01
(PID.TID 0000.0001) %MON dynstat_salt_del2            =   2.6165231829134E-02
(PID.TID 0000.0001) %MON advcfl_uvel_max              =   1.1746279775507E-02
(PID.TID 0000.0001) %MON advcfl_vvel_max              =   5.5392011979096E-03
(PID.TID 0000.0001) %MON advcfl_wvel_max              =   2.4450384445045E-01
(PID.TID 0000.0001) %MON advcfl_W_hf_max              =   2.4787864229427E-01
(PID.TID 0000.0001) %MON pe_b_mean                    =   2.9309228609331E-05
(PID.TID 0000.0001) %MON ke_max                       =   1.7055394127414E-03
(PID.TID 0000.0001) %MON ke_mean                      =   8.6598059380288E-05
(PID.TID 0000.0001) %MON ke_vol                       =   1.3226782436723E+18
(PID.TID 0000.0001) %MON vort_r_min                   =  -2.4767825566004E-07
(PID.TID 0000.0001) %MON vort_r_max                   =   2.6903270025146E-07
(PID.TID 0000.0001) %MON vort_a_mean                  =  -2.5205769190759E-05
(PID.TID 0000.0001) %MON vort_a_sd                    =   7.3402738153689E-05
(PID.TID 0000.0001) %MON vort_p_mean                  =  -3.1758669302097E-05
(PID.TID 0000.0001) %MON vort_p_sd                    =   1.3126497682506E-04
(PID.TID 0000.0001) %MON surfExpan_theta_mean         =   1.5065592370931E-04
(PID.TID 0000.0001) %MON surfExpan_salt_mean          =   1.2494063085366E-05
(PID.TID 0000.0001) // =======================================================
(PID.TID 0000.0001) // End MONITOR dynamic field statistics
(PID.TID 0000.0001) // =======================================================
time,SST,SSS,fu,fv,Q,E-P,i0,i1,a,b =   2.1600E+05  2.0403E-01  3.4422E+01 -3.9689E-02 -6.2670E-02  2.6521E+02  0.0000E+00    12     1  5.8333E-01  4.1667E-01
time,fu0,fu1,fu =   2.1600E+05 -4.5368E-02 -3.5633E-02 -3.9689E-02  5.8333E-01  4.1667E-01
 cg2d: Sum(rhs),rhsMax =  -9.76926872731099E-14  6.89395558172305E+00
(PID.TID 0000.0001)                    cg2d_init_res =    1.71510090514656E+00
(PID.TID 0000.0001)                       cg2d_iters =    26
(PID.TID 0000.0001)                         cg2d_res =    2.74380022301302E-14
(PID.TID 0000.0001) // =======================================================
(PID.TID 0000.0001) // Begin MONITOR dynamic field statistics
(PID.TID 0000.0001) // =======================================================
(PID.TID 0000.0001) %MON time_tsnumber                =                     6
(PID.TID 0000.0001) %MON time_secondsf                =   2.5920000000000E+05
(PID.TID 0000.0001) %MON dynstat_eta_max              =   7.1959482660992E-01
(PID.TID 0000.0001) %MON dynstat_eta_min              =  -6.4368141387708E-01
(PID.TID 0000.0001) %MON dynstat_eta_mean             =   1.6268283162645E-17
(PID.TID 0000.0001) %MON dynstat_eta_sd               =   1.7871418016091E-01
(PID.TID 0000.0001) %MON dynstat_eta_del2             =   2.8270522486322E-02
(PID.TID 0000.0001) %MON dynstat_uvel_max             =   6.8176134256858E-02
(PID.TID 0000.0001) %MON dynstat_uvel_min             =  -6.2618554241697E-02
(PID.TID 0000.0001) %MON dynstat_uvel_mean            =  -3.7032814951105E-03
(PID.TID 0000.0001) %MON dynstat_uvel_sd              =   6.0227448557364E-03
(PID.TID 0000.0001) %MON dynstat_uvel_del2            =   2.1457378427724E-03
(PID.TID 0000.0001) %MON dynstat_vvel_max             =   6.8809080029911E-02
(PID.TID 0000.0001) %MON dynstat_vvel_min             =  -6.1181399507294E-02
(PID.TID 0000.0001) %MON dynstat_vvel_mean            =   4.3839315447575E-03
(PID.TID 0000.0001) %MON dynstat_vvel_sd              =   1.3369761271503E-02
(PID.TID 0000.0001) %MON dynstat_vvel_del2            =   2.5217185951724E-03
(PID.TID 0000.0001) %MON dynstat_wvel_max             =   2.5627513329249E-04
(PID.TID 0000.0001) %MON dynstat_wvel_min             =  -2.7194470551630E-04
(PID.TID 0000.0001) %MON dynstat_wvel_mean            =   2.3989149740677E-22
(PID.TID 0000.0001) %MON dynstat_wvel_sd              =   3.2463262657642E-05
(PID.TID 0000.0001) %MON dynstat_wvel_del2            =   1.0209422316453E-05
(PID.TID 0000.0001) %MON dynstat_theta_max            =   2.9726455071511E+01
(PID.TID 0000.0001) %MON dynstat_theta_min            =  -1.9756921639425E+00
(PID.TID 0000.0001) %MON dynstat_theta_mean           =   3.6113235540032E+00
(PID.TID 0000.0001) %MON dynstat_theta_sd             =   4.3988501561494E+00
(PID.TID 0000.0001) %MON dynstat_theta_del2           =   1.4510157113067E-01
(PID.TID 0000.0001) %MON dynstat_salt_max             =   3.7449510091548E+01
(PID.TID 0000.0001) %MON dynstat_salt_min             =   2.9774513629707E+01
(PID.TID 0000.0001) %MON dynstat_salt_mean            =   3.4717306355491E+01
(PID.TID 0000.0001) %MON dynstat_salt_sd              =   2.9601367294412E-01
(PID.TID 0000.0001) %MON dynstat_salt_del2            =   2.6080200377368E-02
(PID.TID 0000.0001) %MON advcfl_uvel_max              =   1.5051312202860E-02
(PID.TID 0000.0001) %MON advcfl_vvel_max              =   6.6842503424225E-03
(PID.TID 0000.0001) %MON advcfl_wvel_max              =   2.1502942959283E-01
(PID.TID 0000.0001) %MON advcfl_W_hf_max              =   2.2312935941223E-01
(PID.TID 0000.0001) %MON pe_b_mean                    =   4.0869490773793E-05
(PID.TID 0000.0001) %MON ke_max                       =   2.4665141762373E-03
(PID.TID 0000.0001) %MON ke_mean                      =   1.1158732153205E-04
(PID.TID 0000.0001) %MON ke_vol                       =   1.3226782436723E+18
(PID.TID 0000.0001) %MON vort_r_min                   =  -2.8619411441847E-07
(PID.TID 0000.0001) %MON vort_r_max                   =   3.0627229359057E-07
(PID.TID 0000.0001) %MON vort_a_mean                  =  -2.5205769176228E-05
(PID.TID 0000.0001) %MON vort_a_sd                    =   7.3402569514175E-05
(PID.TID 0000.0001) %MON vort_p_mean                  =  -3.1758669283789E-05
(PID.TID 0000.0001) %MON vort_p_sd                    =   1.3126444450565E-04
(PID.TID 0000.0001) %MON surfExpan_theta_mean         =   1.6129168551036E-04
(PID.TID 0000.0001) %MON surfExpan_salt_mean          =   1.3255561589647E-05
(PID.TID 0000.0001) // =======================================================
(PID.TID 0000.0001) // End MONITOR dynamic field statistics
(PID.TID 0000.0001) // =======================================================
time,SST,SSS,fu,fv,Q,E-P,i0,i1,a,b =   2.5920E+05  2.3421E-01  3.4434E+01 -3.9527E-02 -6.2453E-02  2.6523E+02  0.0000E+00    12     1  6.0000E-01  4.0000E-01
time,fu0,fu1,fu =   2.5920E+05 -4.5368E-02 -3.5633E-02 -3.9527E-02  6.0000E-01  4.0000E-01
 cg2d: Sum(rhs),rhsMax =   1.02883847274970E-13  7.15197465286573E+00
(PID.TID 0000.0001)                    cg2d_init_res =    1.59738166428987E+00
(PID.TID 0000.0001)                       cg2d_iters =    26
(PID.TID 0000.0001)                         cg2d_res =    2.62641955393186E-14
(PID.TID 0000.0001) // =======================================================
(PID.TID 0000.0001) // Begin MONITOR dynamic field statistics
(PID.TID 0000.0001) // =======================================================
(PID.TID 0000.0001) %MON time_tsnumber                =                     7
(PID.TID 0000.0001) %MON time_secondsf                =   3.0240000000000E+05
(PID.TID 0000.0001) %MON dynstat_eta_max              =   8.2241092333071E-01
(PID.TID 0000.0001) %MON dynstat_eta_min              =  -7.0122102951640E-01
(PID.TID 0000.0001) %MON dynstat_eta_mean             =  -4.3427020609676E-17
(PID.TID 0000.0001) %MON dynstat_eta_sd               =   2.0514323133913E-01
(PID.TID 0000.0001) %MON dynstat_eta_del2             =   2.7124809289497E-02
(PID.TID 0000.0001) %MON dynstat_uvel_max             =   8.0140737374691E-02
(PID.TID 0000.0001) %MON dynstat_uvel_min             =  -7.5133654501574E-02
(PID.TID 0000.0001) %MON dynstat_uvel_mean            =  -4.6308633090729E-03
(PID.TID 0000.0001) %MON dynstat_uvel_sd              =   7.2758117468940E-03
(PID.TID 0000.0001) %MON dynstat_uvel_del2            =   2.4440333311140E-03
(PID.TID 0000.0001) %MON dynstat_vvel_max             =   7.9433858079765E-02
(PID.TID 0000.0001) %MON dynstat_vvel_min             =  -7.2766938755985E-02
(PID.TID 0000.0001) %MON dynstat_vvel_mean            =   4.7577702664600E-03
(PID.TID 0000.0001) %MON dynstat_vvel_sd              =   1.4358569593510E-02
(PID.TID 0000.0001) %MON dynstat_vvel_del2            =   2.8496681155103E-03
(PID.TID 0000.0001) %MON dynstat_wvel_max             =   2.8110385410964E-04
(PID.TID 0000.0001) %MON dynstat_wvel_min             =  -3.0181171442871E-04
(PID.TID 0000.0001) %MON dynstat_wvel_mean            =  -1.9110112445849E-21
(PID.TID 0000.0001) %MON dynstat_wvel_sd              =   3.4463612700485E-05
(PID.TID 0000.0001) %MON dynstat_wvel_del2            =   1.1492159762337E-05
(PID.TID 0000.0001) %MON dynstat_theta_max            =   2.9720036485839E+01
(PID.TID 0000.0001) %MON dynstat_theta_min            =  -1.9960570533555E+00
(PID.TID 0000.0001) %MON dynstat_theta_mean           =   3.6094295495377E+00
(PID.TID 0000.0001) %MON dynstat_theta_sd             =   4.3945911697316E+00
(PID.TID 0000.0001) %MON dynstat_theta_del2           =   1.4421357709603E-01
(PID.TID 0000.0001) %MON dynstat_salt_max             =   3.7446951356462E+01
(PID.TID 0000.0001) %MON dynstat_salt_min             =   2.9778528273974E+01
(PID.TID 0000.0001) %MON dynstat_salt_mean            =   3.4717151911007E+01
(PID.TID 0000.0001) %MON dynstat_salt_sd              =   2.9598386109223E-01
(PID.TID 0000.0001) %MON dynstat_salt_del2            =   2.5992106595356E-02
(PID.TID 0000.0001) %MON advcfl_uvel_max              =   1.7764484430021E-02
(PID.TID 0000.0001) %MON advcfl_vvel_max              =   7.7163623294892E-03
(PID.TID 0000.0001) %MON advcfl_wvel_max              =   1.8338368929095E-01
(PID.TID 0000.0001) %MON advcfl_W_hf_max              =   1.8262149074094E-01
(PID.TID 0000.0001) %MON pe_b_mean                    =   5.3851224666530E-05
(PID.TID 0000.0001) %MON ke_max                       =   3.2883081749724E-03
(PID.TID 0000.0001) %MON ke_mean                      =   1.3651356902520E-04
(PID.TID 0000.0001) %MON ke_vol                       =   1.3226782436723E+18
(PID.TID 0000.0001) %MON vort_r_min                   =  -3.1772573175658E-07
(PID.TID 0000.0001) %MON vort_r_max                   =   3.3848954848118E-07
(PID.TID 0000.0001) %MON vort_a_mean                  =  -2.5205769190669E-05
(PID.TID 0000.0001) %MON vort_a_sd                    =   7.3402395538456E-05
(PID.TID 0000.0001) %MON vort_p_mean                  =  -3.1758669301984E-05
(PID.TID 0000.0001) %MON vort_p_sd                    =   1.3126385217306E-04
(PID.TID 0000.0001) %MON surfExpan_theta_mean         =   1.6714363516423E-04
(PID.TID 0000.0001) %MON surfExpan_salt_mean          =   1.3552568299189E-05
(PID.TID 0000.0001) // =======================================================
(PID.TID 0000.0001) // End MONITOR dynamic field statistics
(PID.TID 0000.0001) // =======================================================
time,SST,SSS,fu,fv,Q,E-P,i0,i1,a,b =   3.0240E+05  2.6438E-01  3.4446E+01 -3.9365E-02 -6.2237E-02  2.6525E+02  0.0000E+00    12     1  6.1667E-01  3.8333E-01
time,fu0,fu1,fu =   3.0240E+05 -4.5368E-02 -3.5633E-02 -3.9365E-02  6.1667E-01  3.8333E-01
 cg2d: Sum(rhs),rhsMax =  -9.83713978330858E-14  7.75912737003210E+00
(PID.TID 0000.0001)                    cg2d_init_res =    1.41815022391956E+00
(PID.TID 0000.0001)                       cg2d_iters =    26
(PID.TID 0000.0001)                         cg2d_res =    2.36111224727495E-14
(PID.TID 0000.0001) // =======================================================
(PID.TID 0000.0001) // Begin MONITOR dynamic field statistics
(PID.TID 0000.0001) // =======================================================
(PID.TID 0000.0001) %MON time_tsnumber                =                     8
(PID.TID 0000.0001) %MON time_secondsf                =   3.4560000000000E+05
(PID.TID 0000.0001) %MON dynstat_eta_max              =   8.9650260250649E-01
(PID.TID 0000.0001) %MON dynstat_eta_min              =  -7.3524945814390E-01
(PID.TID 0000.0001) %MON dynstat_eta_mean             =  -7.0329376739705E-17
(PID.TID 0000.0001) %MON dynstat_eta_sd               =   2.3053366462951E-01
(PID.TID 0000.0001) %MON dynstat_eta_del2             =   2.6272288748433E-02
(PID.TID 0000.0001) %MON dynstat_uvel_max             =   9.1706035754971E-02
(PID.TID 0000.0001) %MON dynstat_uvel_min             =  -9.5582619500714E-02
(PID.TID 0000.0001) %MON dynstat_uvel_mean            =  -5.5596287569812E-03
(PID.TID 0000.0001) %MON dynstat_uvel_sd              =   8.5682220812469E-03
(PID.TID 0000.0001) %MON dynstat_uvel_del2            =   2.7287171011186E-03
(PID.TID 0000.0001) %MON dynstat_vvel_max             =   8.7404412837528E-02
(PID.TID 0000.0001) %MON dynstat_vvel_min             =  -8.4408847132105E-02
(PID.TID 0000.0001) %MON dynstat_vvel_mean            =   5.0090108798388E-03
(PID.TID 0000.0001) %MON dynstat_vvel_sd              =   1.5079059291090E-02
(PID.TID 0000.0001) %MON dynstat_vvel_del2            =   3.1472846334772E-03
(PID.TID 0000.0001) %MON dynstat_wvel_max             =   3.0283415453764E-04
(PID.TID 0000.0001) %MON dynstat_wvel_min             =  -3.2829884556854E-04
(PID.TID 0000.0001) %MON dynstat_wvel_mean            =   1.7298105505776E-22
(PID.TID 0000.0001) %MON dynstat_wvel_sd              =   3.6352000654503E-05
(PID.TID 0000.0001) %MON dynstat_wvel_del2            =   1.2630465430070E-05
(PID.TID 0000.0001) %MON dynstat_theta_max            =   2.9705167312635E+01
(PID.TID 0000.0001) %MON dynstat_theta_min            =  -2.0133922168742E+00
(PID.TID 0000.0001) %MON dynstat_theta_mean           =   3.6075474478103E+00
(PID.TID 0000.0001) %MON dynstat_theta_sd             =   4.3902298529173E+00
(PID.TID 0000.0001) %MON dynstat_theta_del2           =   1.4324101017835E-01
(PID.TID 0000.0001) %MON dynstat_salt_max             =   3.7444925804362E+01
(PID.TID 0000.0001) %MON dynstat_salt_min             =   2.9782263857737E+01
(PID.TID 0000.0001) %MON dynstat_salt_mean            =   3.4717001360432E+01
(PID.TID 0000.0001) %MON dynstat_salt_sd              =   2.9594522266953E-01
(PID.TID 0000.0001) %MON dynstat_salt_del2            =   2.5903062034153E-02
(PID.TID 0000.0001) %MON advcfl_uvel_max              =   1.9385286548662E-02
(PID.TID 0000.0001) %MON advcfl_vvel_max              =   8.4906378080411E-03
(PID.TID 0000.0001) %MON advcfl_wvel_max              =   1.9847905810923E-01
(PID.TID 0000.0001) %MON advcfl_W_hf_max              =   2.0418633689317E-01
(PID.TID 0000.0001) %MON pe_b_mean                    =   6.8006419200118E-05
(PID.TID 0000.0001) %MON ke_max                       =   4.3071999600391E-03
(PID.TID 0000.0001) %MON ke_mean                      =   1.6073997930702E-04
(PID.TID 0000.0001) %MON ke_vol                       =   1.3226782436723E+18
(PID.TID 0000.0001) %MON vort_r_min                   =  -3.4275975421683E-07
(PID.TID 0000.0001) %MON vort_r_max                   =   4.1943167326291E-07
(PID.TID 0000.0001) %MON vort_a_mean                  =  -2.5205769233152E-05
(PID.TID 0000.0001) %MON vort_a_sd                    =   7.3402221263636E-05
(PID.TID 0000.0001) %MON vort_p_mean                  =  -3.1758669355512E-05
(PID.TID 0000.0001) %MON vort_p_sd                    =   1.3126321830724E-04
(PID.TID 0000.0001) %MON surfExpan_theta_mean         =   1.6876533000171E-04
(PID.TID 0000.0001) %MON surfExpan_salt_mean          =   1.3448646012903E-05
(PID.TID 0000.0001) // =======================================================
(PID.TID 0000.0001) // End MONITOR dynamic field statistics
(PID.TID 0000.0001) // =======================================================
time,SST,SSS,fu,fv,Q,E-P,i0,i1,a,b =   3.4560E+05  2.9456E-01  3.4457E+01 -3.9202E-02 -6.2020E-02  2.6528E+02  0.0000E+00    12     1  6.3333E-01  3.6667E-01
time,fu0,fu1,fu =   3.4560E+05 -4.5368E-02 -3.5633E-02 -3.9202E-02  6.3333E-01  3.6667E-01
 cg2d: Sum(rhs),rhsMax =   1.23284629033327E-14  8.10189543860990E+00
(PID.TID 0000.0001)                    cg2d_init_res =    1.30943317955589E+00
(PID.TID 0000.0001)                       cg2d_iters =    25
(PID.TID 0000.0001)                         cg2d_res =    9.75841805347067E-14
(PID.TID 0000.0001) // =======================================================
(PID.TID 0000.0001) // Begin MONITOR dynamic field statistics
(PID.TID 0000.0001) // =======================================================
(PID.TID 0000.0001) %MON time_tsnumber                =                     9
(PID.TID 0000.0001) %MON time_secondsf                =   3.8880000000000E+05
(PID.TID 0000.0001) %MON dynstat_eta_max              =   9.4064172109216E-01
(PID.TID 0000.0001) %MON dynstat_eta_min              =  -8.1284655131968E-01
(PID.TID 0000.0001) %MON dynstat_eta_mean             =  -4.5230363783844E-17
(PID.TID 0000.0001) %MON dynstat_eta_sd               =   2.5465324837832E-01
(PID.TID 0000.0001) %MON dynstat_eta_del2             =   2.5570097088481E-02
(PID.TID 0000.0001) %MON dynstat_uvel_max             =   1.0289594293347E-01
(PID.TID 0000.0001) %MON dynstat_uvel_min             =  -1.1425471407149E-01
(PID.TID 0000.0001) %MON dynstat_uvel_mean            =  -6.4602880533098E-03
(PID.TID 0000.0001) %MON dynstat_uvel_sd              =   9.8690486076062E-03
(PID.TID 0000.0001) %MON dynstat_uvel_del2            =   2.9987327908401E-03
(PID.TID 0000.0001) %MON dynstat_vvel_max             =   9.2313953966729E-02
(PID.TID 0000.0001) %MON dynstat_vvel_min             =  -9.5436241724970E-02
(PID.TID 0000.0001) %MON dynstat_vvel_mean            =   5.1397206171343E-03
(PID.TID 0000.0001) %MON dynstat_vvel_sd              =   1.5563600630055E-02
(PID.TID 0000.0001) %MON dynstat_vvel_del2            =   3.4166960942118E-03
(PID.TID 0000.0001) %MON dynstat_wvel_max             =   3.2059520149269E-04
(PID.TID 0000.0001) %MON dynstat_wvel_min             =  -3.5192453575403E-04
(PID.TID 0000.0001) %MON dynstat_wvel_mean            =  -2.2515030105894E-21
(PID.TID 0000.0001) %MON dynstat_wvel_sd              =   3.7995754908811E-05
(PID.TID 0000.0001) %MON dynstat_wvel_del2            =   1.3583144028559E-05
(PID.TID 0000.0001) %MON dynstat_theta_max            =   2.9683514251005E+01
(PID.TID 0000.0001) %MON dynstat_theta_min            =  -2.0265867511570E+00
(PID.TID 0000.0001) %MON dynstat_theta_mean           =   3.6057148477001E+00
(PID.TID 0000.0001) %MON dynstat_theta_sd             =   4.3858307325906E+00
(PID.TID 0000.0001) %MON dynstat_theta_del2           =   1.4227802314627E-01
(PID.TID 0000.0001) %MON dynstat_salt_max             =   3.7443133627112E+01
(PID.TID 0000.0001) %MON dynstat_salt_min             =   2.9785619043049E+01
(PID.TID 0000.0001) %MON dynstat_salt_mean            =   3.4716858166510E+01
(PID.TID 0000.0001) %MON dynstat_salt_sd              =   2.9589856718970E-01
(PID.TID 0000.0001) %MON dynstat_salt_del2            =   2.5817882903701E-02
(PID.TID 0000.0001) %MON advcfl_uvel_max              =   1.9732454251812E-02
(PID.TID 0000.0001) %MON advcfl_vvel_max              =   9.2708655769319E-03
(PID.TID 0000.0001) %MON advcfl_wvel_max              =   2.0775400733811E-01
(PID.TID 0000.0001) %MON advcfl_W_hf_max              =   2.1660302299963E-01
(PID.TID 0000.0001) %MON pe_b_mean                    =   8.2981186652262E-05
(PID.TID 0000.0001) %MON ke_max                       =   5.4183702174993E-03
(PID.TID 0000.0001) %MON ke_mean                      =   1.8381577590470E-04
(PID.TID 0000.0001) %MON ke_vol                       =   1.3226782436723E+18
(PID.TID 0000.0001) %MON vort_r_min                   =  -3.6241054083024E-07
(PID.TID 0000.0001) %MON vort_r_max                   =   5.0229434975302E-07
(PID.TID 0000.0001) %MON vort_a_mean                  =  -2.5205769294172E-05
(PID.TID 0000.0001) %MON vort_a_sd                    =   7.3402051636652E-05
(PID.TID 0000.0001) %MON vort_p_mean                  =  -3.1758669432396E-05
(PID.TID 0000.0001) %MON vort_p_sd                    =   1.3126256325835E-04
(PID.TID 0000.0001) %MON surfExpan_theta_mean         =   1.6670235327079E-04
(PID.TID 0000.0001) %MON surfExpan_salt_mean          =   1.3000316631932E-05
(PID.TID 0000.0001) // =======================================================
(PID.TID 0000.0001) // End MONITOR dynamic field statistics
(PID.TID 0000.0001) // =======================================================
time,SST,SSS,fu,fv,Q,E-P,i0,i1,a,b =   3.8880E+05  3.2473E-01  3.4469E+01 -3.9040E-02 -6.1804E-02  2.6530E+02  0.0000E+00    12     1  6.5000E-01  3.5000E-01
time,fu0,fu1,fu =   3.8880E+05 -4.5368E-02 -3.5633E-02 -3.9040E-02  6.5000E-01  3.5000E-01
 cg2d: Sum(rhs),rhsMax =  -4.07581412197044E-14  8.20838987866646E+00
(PID.TID 0000.0001)                    cg2d_init_res =    1.24843072129610E+00
(PID.TID 0000.0001)                       cg2d_iters =    25
(PID.TID 0000.0001)                         cg2d_res =    9.14512414257139E-14
(PID.TID 0000.0001) // =======================================================
(PID.TID 0000.0001) // Begin MONITOR dynamic field statistics
(PID.TID 0000.0001) // =======================================================
(PID.TID 0000.0001) %MON time_tsnumber                =                    10
(PID.TID 0000.0001) %MON time_secondsf                =   4.3200000000000E+05
(PID.TID 0000.0001) %MON dynstat_eta_max              =   9.5839646272562E-01
(PID.TID 0000.0001) %MON dynstat_eta_min              =  -8.6938696451846E-01
(PID.TID 0000.0001) %MON dynstat_eta_mean             =  -5.0405297424461E-17
(PID.TID 0000.0001) %MON dynstat_eta_sd               =   2.7723382888256E-01
(PID.TID 0000.0001) %MON dynstat_eta_del2             =   2.4849539878448E-02
(PID.TID 0000.0001) %MON dynstat_uvel_max             =   1.1373756886609E-01
(PID.TID 0000.0001) %MON dynstat_uvel_min             =  -1.2999275285327E-01
(PID.TID 0000.0001) %MON dynstat_uvel_mean            =  -7.3056377047945E-03
(PID.TID 0000.0001) %MON dynstat_uvel_sd              =   1.1150072793829E-02
(PID.TID 0000.0001) %MON dynstat_uvel_del2            =   3.2513019865155E-03
(PID.TID 0000.0001) %MON dynstat_vvel_max             =   9.4244432993565E-02
(PID.TID 0000.0001) %MON dynstat_vvel_min             =  -1.0568944896034E-01
(PID.TID 0000.0001) %MON dynstat_vvel_mean            =   5.1564891681534E-03
(PID.TID 0000.0001) %MON dynstat_vvel_sd              =   1.5849828471984E-02
(PID.TID 0000.0001) %MON dynstat_vvel_del2            =   3.6614959598865E-03
(PID.TID 0000.0001) %MON dynstat_wvel_max             =   3.3353583277019E-04
(PID.TID 0000.0001) %MON dynstat_wvel_min             =  -3.7345509014840E-04
(PID.TID 0000.0001) %MON dynstat_wvel_mean            =  -1.1725227973679E-21
(PID.TID 0000.0001) %MON dynstat_wvel_sd              =   3.9324350766495E-05
(PID.TID 0000.0001) %MON dynstat_wvel_del2            =   1.4353228108991E-05
(PID.TID 0000.0001) %MON dynstat_theta_max            =   2.9658224716121E+01
(PID.TID 0000.0001) %MON dynstat_theta_min            =  -2.0353181012356E+00
(PID.TID 0000.0001) %MON dynstat_theta_mean           =   3.6039629470107E+00
(PID.TID 0000.0001) %MON dynstat_theta_sd             =   4.3814523486620E+00
(PID.TID 0000.0001) %MON dynstat_theta_del2           =   1.4133132934937E-01
(PID.TID 0000.0001) %MON dynstat_salt_max             =   3.7441345491798E+01
(PID.TID 0000.0001) %MON dynstat_salt_min             =   2.9788514598536E+01
(PID.TID 0000.0001) %MON dynstat_salt_mean            =   3.4716725143935E+01
(PID.TID 0000.0001) %MON dynstat_salt_sd              =   2.9584489991677E-01
(PID.TID 0000.0001) %MON dynstat_salt_del2            =   2.5734084249796E-02
(PID.TID 0000.0001) %MON advcfl_uvel_max              =   1.8856814024802E-02
(PID.TID 0000.0001) %MON advcfl_vvel_max              =   1.0266882439011E-02
(PID.TID 0000.0001) %MON advcfl_wvel_max              =   2.1508814489608E-01
(PID.TID 0000.0001) %MON advcfl_W_hf_max              =   2.1059825700057E-01
(PID.TID 0000.0001) %MON pe_b_mean                    =   9.8349837408604E-05
(PID.TID 0000.0001) %MON ke_max                       =   6.6177441360543E-03
(PID.TID 0000.0001) %MON ke_mean                      =   2.0544968501231E-04
(PID.TID 0000.0001) %MON ke_vol                       =   1.3226782436723E+18
(PID.TID 0000.0001) %MON vort_r_min                   =  -3.7957105257093E-07
(PID.TID 0000.0001) %MON vort_r_max                   =   5.8076043917023E-07
(PID.TID 0000.0001) %MON vort_a_mean                  =  -2.5205769362016E-05
(PID.TID 0000.0001) %MON vort_a_sd                    =   7.3401891341824E-05
(PID.TID 0000.0001) %MON vort_p_mean                  =  -3.1758669517877E-05
(PID.TID 0000.0001) %MON vort_p_sd                    =   1.3126190975376E-04
(PID.TID 0000.0001) %MON surfExpan_theta_mean         =   1.6153786677767E-04
(PID.TID 0000.0001) %MON surfExpan_salt_mean          =   1.2267062863850E-05
(PID.TID 0000.0001) // =======================================================
(PID.TID 0000.0001) // End MONITOR dynamic field statistics
(PID.TID 0000.0001) // =======================================================
time,SST,SSS,fu,fv,Q,E-P,i0,i1,a,b =   4.3200E+05  3.5491E-01  3.4481E+01 -3.8878E-02 -6.1587E-02  2.6532E+02  0.0000E+00    12     1  6.6667E-01  3.3333E-01
time,fu0,fu1,fu =   4.3200E+05 -4.5368E-02 -3.5633E-02 -3.8878E-02  6.6667E-01  3.3333E-01
 cg2d: Sum(rhs),rhsMax =   1.60932465270713E-13  8.13787538473574E+00
(PID.TID 0000.0001)                    cg2d_init_res =    1.21764755314484E+00
(PID.TID 0000.0001)                       cg2d_iters =    25
(PID.TID 0000.0001)                         cg2d_res =    8.73112778383492E-14
(PID.TID 0000.0001) // =======================================================
(PID.TID 0000.0001) // Begin MONITOR dynamic field statistics
(PID.TID 0000.0001) // =======================================================
(PID.TID 0000.0001) %MON time_tsnumber                =                    11
(PID.TID 0000.0001) %MON time_secondsf                =   4.7520000000000E+05
(PID.TID 0000.0001) %MON dynstat_eta_max              =   9.5610500298101E-01
(PID.TID 0000.0001) %MON dynstat_eta_min              =  -9.2347747098154E-01
(PID.TID 0000.0001) %MON dynstat_eta_mean             =   1.5939545185161E-17
(PID.TID 0000.0001) %MON dynstat_eta_sd               =   2.9801988535839E-01
(PID.TID 0000.0001) %MON dynstat_eta_del2             =   2.4165564922806E-02
(PID.TID 0000.0001) %MON dynstat_uvel_max             =   1.2423150973068E-01
(PID.TID 0000.0001) %MON dynstat_uvel_min             =  -1.4212537732057E-01
(PID.TID 0000.0001) %MON dynstat_uvel_mean            =  -8.0714442250380E-03
(PID.TID 0000.0001) %MON dynstat_uvel_sd              =   1.2387262722666E-02
(PID.TID 0000.0001) %MON dynstat_uvel_del2            =   3.4894736253309E-03
(PID.TID 0000.0001) %MON dynstat_vvel_max             =   1.0267072707750E-01
(PID.TID 0000.0001) %MON dynstat_vvel_min             =  -1.1495449312043E-01
(PID.TID 0000.0001) %MON dynstat_vvel_mean            =   5.0702590436022E-03
(PID.TID 0000.0001) %MON dynstat_vvel_sd              =   1.5979352211824E-02
(PID.TID 0000.0001) %MON dynstat_vvel_del2            =   3.8841206637765E-03
(PID.TID 0000.0001) %MON dynstat_wvel_max             =   3.4118272934356E-04
(PID.TID 0000.0001) %MON dynstat_wvel_min             =  -3.9350646469510E-04
(PID.TID 0000.0001) %MON dynstat_wvel_mean            =  -1.3310281565600E-21
(PID.TID 0000.0001) %MON dynstat_wvel_sd              =   4.0324072479607E-05
(PID.TID 0000.0001) %MON dynstat_wvel_del2            =   1.4965131228895E-05
(PID.TID 0000.0001) %MON dynstat_theta_max            =   2.9631739620573E+01
(PID.TID 0000.0001) %MON dynstat_theta_min            =  -2.0399153194527E+00
(PID.TID 0000.0001) %MON dynstat_theta_mean           =   3.6023162049369E+00
(PID.TID 0000.0001) %MON dynstat_theta_sd             =   4.3771457175529E+00
(PID.TID 0000.0001) %MON dynstat_theta_del2           =   1.4043085943932E-01
(PID.TID 0000.0001) %MON dynstat_salt_max             =   3.7439433201862E+01
(PID.TID 0000.0001) %MON dynstat_salt_min             =   2.9790894406875E+01
(PID.TID 0000.0001) %MON dynstat_salt_mean            =   3.4716604361577E+01
(PID.TID 0000.0001) %MON dynstat_salt_sd              =   2.9578665587240E-01
(PID.TID 0000.0001) %MON dynstat_salt_del2            =   2.5656374284474E-02
(PID.TID 0000.0001) %MON advcfl_uvel_max              =   1.9785726471257E-02
(PID.TID 0000.0001) %MON advcfl_vvel_max              =   1.1166907182442E-02
(PID.TID 0000.0001) %MON advcfl_wvel_max              =   2.1779860695569E-01
(PID.TID 0000.0001) %MON advcfl_W_hf_max              =   2.0603408823478E-01
(PID.TID 0000.0001) %MON pe_b_mean                    =   1.1365058794839E-04
(PID.TID 0000.0001) %MON ke_max                       =   7.8966171297009E-03
(PID.TID 0000.0001) %MON ke_mean                      =   2.2548429610736E-04
(PID.TID 0000.0001) %MON ke_vol                       =   1.3226782436723E+18
(PID.TID 0000.0001) %MON vort_r_min                   =  -3.9933716992841E-07
(PID.TID 0000.0001) %MON vort_r_max                   =   6.5182433974696E-07
(PID.TID 0000.0001) %MON vort_a_mean                  =  -2.5205769425787E-05
(PID.TID 0000.0001) %MON vort_a_sd                    =   7.3401744646186E-05
(PID.TID 0000.0001) %MON vort_p_mean                  =  -3.1758669598227E-05
(PID.TID 0000.0001) %MON vort_p_sd                    =   1.3126128190143E-04
(PID.TID 0000.0001) %MON surfExpan_theta_mean         =   1.5383355441955E-04
(PID.TID 0000.0001) %MON surfExpan_salt_mean          =   1.1309640163904E-05
(PID.TID 0000.0001) // =======================================================
(PID.TID 0000.0001) // End MONITOR dynamic field statistics
(PID.TID 0000.0001) // =======================================================
time,SST,SSS,fu,fv,Q,E-P,i0,i1,a,b =   4.7520E+05  3.8508E-01  3.4492E+01 -3.8716E-02 -6.1371E-02  2.6534E+02  0.0000E+00    12     1  6.8333E-01  3.1667E-01
time,fu0,fu1,fu =   4.7520E+05 -4.5368E-02 -3.5633E-02 -3.8716E-02  6.8333E-01  3.1667E-01
 cg2d: Sum(rhs),rhsMax =   1.06017625234323E-14  8.14788871653525E+00
(PID.TID 0000.0001)                    cg2d_init_res =    1.17638062180254E+00
(PID.TID 0000.0001)                       cg2d_iters =    25
(PID.TID 0000.0001)                         cg2d_res =    8.27100411461690E-14
(PID.TID 0000.0001) // =======================================================
(PID.TID 0000.0001) // Begin MONITOR dynamic field statistics
(PID.TID 0000.0001) // =======================================================
(PID.TID 0000.0001) %MON time_tsnumber                =                    12
(PID.TID 0000.0001) %MON time_secondsf                =   5.1840000000000E+05
(PID.TID 0000.0001) %MON dynstat_eta_max              =   1.0074952809529E+00
(PID.TID 0000.0001) %MON dynstat_eta_min              =  -1.0456219851304E+00
(PID.TID 0000.0001) %MON dynstat_eta_mean             =  -6.2589609057322E-17
(PID.TID 0000.0001) %MON dynstat_eta_sd               =   3.1679446760212E-01
(PID.TID 0000.0001) %MON dynstat_eta_del2             =   2.3412669627047E-02
(PID.TID 0000.0001) %MON dynstat_uvel_max             =   1.3434959297709E-01
(PID.TID 0000.0001) %MON dynstat_uvel_min             =  -1.5042032790358E-01
(PID.TID 0000.0001) %MON dynstat_uvel_mean            =  -8.7373304599163E-03
(PID.TID 0000.0001) %MON dynstat_uvel_sd              =   1.3561664572039E-02
(PID.TID 0000.0001) %MON dynstat_uvel_del2            =   3.7121775989619E-03
(PID.TID 0000.0001) %MON dynstat_vvel_max             =   1.0909702753802E-01
(PID.TID 0000.0001) %MON dynstat_vvel_min             =  -1.2299796428600E-01
(PID.TID 0000.0001) %MON dynstat_vvel_mean            =   4.8958444873018E-03
(PID.TID 0000.0001) %MON dynstat_vvel_sd              =   1.5995481612742E-02
(PID.TID 0000.0001) %MON dynstat_vvel_del2            =   4.0875317301927E-03
(PID.TID 0000.0001) %MON dynstat_wvel_max             =   3.4889552607168E-04
(PID.TID 0000.0001) %MON dynstat_wvel_min             =  -4.1226545758209E-04
(PID.TID 0000.0001) %MON dynstat_wvel_mean            =   1.1041374481594E-21
(PID.TID 0000.0001) %MON dynstat_wvel_sd              =   4.1016284366779E-05
(PID.TID 0000.0001) %MON dynstat_wvel_del2            =   1.5439433100840E-05
(PID.TID 0000.0001) %MON dynstat_theta_max            =   2.9604817057475E+01
(PID.TID 0000.0001) %MON dynstat_theta_min            =  -2.0410855242992E+00
(PID.TID 0000.0001) %MON dynstat_theta_mean           =   3.6007932868533E+00
(PID.TID 0000.0001) %MON dynstat_theta_sd             =   4.3729551435004E+00
(PID.TID 0000.0001) %MON dynstat_theta_del2           =   1.3957827566632E-01
(PID.TID 0000.0001) %MON dynstat_salt_max             =   3.7437313117321E+01
(PID.TID 0000.0001) %MON dynstat_salt_min             =   2.9792878071387E+01
(PID.TID 0000.0001) %MON dynstat_salt_mean            =   3.4716497212697E+01
(PID.TID 0000.0001) %MON dynstat_salt_sd              =   2.9572488673284E-01
(PID.TID 0000.0001) %MON dynstat_salt_del2            =   2.5585432711302E-02
(PID.TID 0000.0001) %MON advcfl_uvel_max              =   2.3574391488347E-02
(PID.TID 0000.0001) %MON advcfl_vvel_max              =   1.1948265905293E-02
(PID.TID 0000.0001) %MON advcfl_wvel_max              =   2.1819616909167E-01
(PID.TID 0000.0001) %MON advcfl_W_hf_max              =   1.8945583030361E-01
(PID.TID 0000.0001) %MON pe_b_mean                    =   1.2842109757528E-04
(PID.TID 0000.0001) %MON ke_max                       =   9.2378762547431E-03
(PID.TID 0000.0001) %MON ke_mean                      =   2.4386550227010E-04
(PID.TID 0000.0001) %MON ke_vol                       =   1.3226782436723E+18
(PID.TID 0000.0001) %MON vort_r_min                   =  -4.0763666825508E-07
(PID.TID 0000.0001) %MON vort_r_max                   =   7.1290554156103E-07
(PID.TID 0000.0001) %MON vort_a_mean                  =  -2.5205769476608E-05
(PID.TID 0000.0001) %MON vort_a_sd                    =   7.3401615245798E-05
(PID.TID 0000.0001) %MON vort_p_mean                  =  -3.1758669662260E-05
(PID.TID 0000.0001) %MON vort_p_sd                    =   1.3126070388801E-04
(PID.TID 0000.0001) %MON surfExpan_theta_mean         =   1.4414335552786E-04
(PID.TID 0000.0001) %MON surfExpan_salt_mean          =   1.0192739709398E-05
(PID.TID 0000.0001) // =======================================================
(PID.TID 0000.0001) // End MONITOR dynamic field statistics
(PID.TID 0000.0001) // =======================================================
time,SST,SSS,fu,fv,Q,E-P,i0,i1,a,b =   5.1840E+05  4.1526E-01  3.4504E+01 -3.8553E-02 -6.1154E-02  2.6537E+02  0.0000E+00    12     1  7.0000E-01  3.0000E-01
time,fu0,fu1,fu =   5.1840E+05 -4.5368E-02 -3.5633E-02 -3.8553E-02  7.0000E-01  3.0000E-01
 cg2d: Sum(rhs),rhsMax =  -2.97366298251944E-14  8.75897655452795E+00
(PID.TID 0000.0001)                    cg2d_init_res =    1.05920577058130E+00
(PID.TID 0000.0001)                       cg2d_iters =    25
(PID.TID 0000.0001)                         cg2d_res =    7.25211050425209E-14
(PID.TID 0000.0001) // =======================================================
(PID.TID 0000.0001) // Begin MONITOR dynamic field statistics
(PID.TID 0000.0001) // =======================================================
(PID.TID 0000.0001) %MON time_tsnumber                =                    13
(PID.TID 0000.0001) %MON time_secondsf                =   5.6160000000000E+05
(PID.TID 0000.0001) %MON dynstat_eta_max              =   1.0612829545239E+00
(PID.TID 0000.0001) %MON dynstat_eta_min              =  -1.1653293918539E+00
(PID.TID 0000.0001) %MON dynstat_eta_mean             =   4.9258614026070E-17
(PID.TID 0000.0001) %MON dynstat_eta_sd               =   3.3339718476499E-01
(PID.TID 0000.0001) %MON dynstat_eta_del2             =   2.2673877009692E-02
(PID.TID 0000.0001) %MON dynstat_uvel_max             =   1.4404834909203E-01
(PID.TID 0000.0001) %MON dynstat_uvel_min             =  -1.5498454381975E-01
(PID.TID 0000.0001) %MON dynstat_uvel_mean            =  -9.2875691610909E-03
(PID.TID 0000.0001) %MON dynstat_uvel_sd              =   1.4659494895647E-02
(PID.TID 0000.0001) %MON dynstat_uvel_del2            =   3.9196153347711E-03
(PID.TID 0000.0001) %MON dynstat_vvel_max             =   1.1511302164944E-01
(PID.TID 0000.0001) %MON dynstat_vvel_min             =  -1.2959861976595E-01
(PID.TID 0000.0001) %MON dynstat_vvel_mean            =   4.6511499021630E-03
(PID.TID 0000.0001) %MON dynstat_vvel_sd              =   1.5940317986409E-02
(PID.TID 0000.0001) %MON dynstat_vvel_del2            =   4.2693770909211E-03
(PID.TID 0000.0001) %MON dynstat_wvel_max             =   3.5504290779526E-04
(PID.TID 0000.0001) %MON dynstat_wvel_min             =  -4.3379769515206E-04
(PID.TID 0000.0001) %MON dynstat_wvel_mean            =   3.0912336242548E-22
(PID.TID 0000.0001) %MON dynstat_wvel_sd              =   4.1437034926554E-05
(PID.TID 0000.0001) %MON dynstat_wvel_del2            =   1.5789013211951E-05
(PID.TID 0000.0001) %MON dynstat_theta_max            =   2.9576595204747E+01
(PID.TID 0000.0001) %MON dynstat_theta_min            =  -2.0394050962506E+00
(PID.TID 0000.0001) %MON dynstat_theta_mean           =   3.5994072964202E+00
(PID.TID 0000.0001) %MON dynstat_theta_sd             =   4.3689205571865E+00
(PID.TID 0000.0001) %MON dynstat_theta_del2           =   1.3880884594417E-01
(PID.TID 0000.0001) %MON dynstat_salt_max             =   3.7435093489310E+01
(PID.TID 0000.0001) %MON dynstat_salt_min             =   2.9794662480104E+01
(PID.TID 0000.0001) %MON dynstat_salt_mean            =   3.4716404418829E+01
(PID.TID 0000.0001) %MON dynstat_salt_sd              =   2.9566039147566E-01
(PID.TID 0000.0001) %MON dynstat_salt_del2            =   2.5522700962850E-02
(PID.TID 0000.0001) %MON advcfl_uvel_max              =   2.8361157493346E-02
(PID.TID 0000.0001) %MON advcfl_vvel_max              =   1.2589466654277E-02
(PID.TID 0000.0001) %MON advcfl_wvel_max              =   2.2481908658229E-01
(PID.TID 0000.0001) %MON advcfl_W_hf_max              =   1.9030767300216E-01
(PID.TID 0000.0001) %MON pe_b_mean                    =   1.4223453482244E-04
(PID.TID 0000.0001) %MON ke_max                       =   1.0616555645562E-02
(PID.TID 0000.0001) %MON ke_mean                      =   2.6060733157182E-04
(PID.TID 0000.0001) %MON ke_vol                       =   1.3226782436723E+18
(PID.TID 0000.0001) %MON vort_r_min                   =  -4.4248255377682E-07
(PID.TID 0000.0001) %MON vort_r_max                   =   7.6186073799117E-07
(PID.TID 0000.0001) %MON vort_a_mean                  =  -2.5205769508170E-05
(PID.TID 0000.0001) %MON vort_a_sd                    =   7.3401506117215E-05
(PID.TID 0000.0001) %MON vort_p_mean                  =  -3.1758669702028E-05
(PID.TID 0000.0001) %MON vort_p_sd                    =   1.3126019748076E-04
(PID.TID 0000.0001) %MON surfExpan_theta_mean         =   1.3296724281418E-04
(PID.TID 0000.0001) %MON surfExpan_salt_mean          =   8.9758486126431E-06
(PID.TID 0000.0001) // =======================================================
(PID.TID 0000.0001) // End MONITOR dynamic field statistics
(PID.TID 0000.0001) // =======================================================
time,SST,SSS,fu,fv,Q,E-P,i0,i1,a,b =   5.6160E+05  4.4544E-01  3.4516E+01 -3.8391E-02 -6.0938E-02  2.6539E+02  0.0000E+00    12     1  7.1667E-01  2.8333E-01
time,fu0,fu1,fu =   5.6160E+05 -4.5368E-02 -3.5633E-02 -3.8391E-02  7.1667E-01  2.8333E-01
 cg2d: Sum(rhs),rhsMax =   2.99241534329475E-13  9.51806764571327E+00
(PID.TID 0000.0001)                    cg2d_init_res =    9.45113262679570E-01
(PID.TID 0000.0001)                       cg2d_iters =    25
(PID.TID 0000.0001)                         cg2d_res =    6.20690463354667E-14
(PID.TID 0000.0001) // =======================================================
(PID.TID 0000.0001) // Begin MONITOR dynamic field statistics
(PID.TID 0000.0001) // =======================================================
(PID.TID 0000.0001) %MON time_tsnumber                =                    14
(PID.TID 0000.0001) %MON time_secondsf                =   6.0480000000000E+05
(PID.TID 0000.0001) %MON dynstat_eta_max              =   1.1485355435680E+00
(PID.TID 0000.0001) %MON dynstat_eta_min              =  -1.2548043688144E+00
(PID.TID 0000.0001) %MON dynstat_eta_mean             =   9.3829087000955E-17
(PID.TID 0000.0001) %MON dynstat_eta_sd               =   3.4773663845056E-01
(PID.TID 0000.0001) %MON dynstat_eta_del2             =   2.1998954692481E-02
(PID.TID 0000.0001) %MON dynstat_uvel_max             =   1.5328216187051E-01
(PID.TID 0000.0001) %MON dynstat_uvel_min             =  -1.5614301509586E-01
(PID.TID 0000.0001) %MON dynstat_uvel_mean            =  -9.7116378617457E-03
(PID.TID 0000.0001) %MON dynstat_uvel_sd              =   1.5671692021246E-02
(PID.TID 0000.0001) %MON dynstat_uvel_del2            =   4.1134681940604E-03
(PID.TID 0000.0001) %MON dynstat_vvel_max             =   1.2142408007298E-01
(PID.TID 0000.0001) %MON dynstat_vvel_min             =  -1.3456839630501E-01
(PID.TID 0000.0001) %MON dynstat_vvel_mean            =   4.3561209183537E-03
(PID.TID 0000.0001) %MON dynstat_vvel_sd              =   1.5851682127953E-02
(PID.TID 0000.0001) %MON dynstat_vvel_del2            =   4.4324655265498E-03
(PID.TID 0000.0001) %MON dynstat_wvel_max             =   3.6435768333023E-04
(PID.TID 0000.0001) %MON dynstat_wvel_min             =  -4.5417872308890E-04
(PID.TID 0000.0001) %MON dynstat_wvel_mean            =  -2.0016867805689E-22
(PID.TID 0000.0001) %MON dynstat_wvel_sd              =   4.1623257553915E-05
(PID.TID 0000.0001) %MON dynstat_wvel_del2            =   1.6028652953924E-05
(PID.TID 0000.0001) %MON dynstat_theta_max            =   2.9551094168611E+01
(PID.TID 0000.0001) %MON dynstat_theta_min            =  -2.0351975080971E+00
(PID.TID 0000.0001) %MON dynstat_theta_mean           =   3.5981667436938E+00
(PID.TID 0000.0001) %MON dynstat_theta_sd             =   4.3650785309847E+00
(PID.TID 0000.0001) %MON dynstat_theta_del2           =   1.3811773251797E-01
(PID.TID 0000.0001) %MON dynstat_salt_max             =   3.7432983177770E+01
(PID.TID 0000.0001) %MON dynstat_salt_min             =   2.9796149611561E+01
(PID.TID 0000.0001) %MON dynstat_salt_mean            =   3.4716326194446E+01
(PID.TID 0000.0001) %MON dynstat_salt_sd              =   2.9559413106232E-01
(PID.TID 0000.0001) %MON dynstat_salt_del2            =   2.5466671877622E-02
(PID.TID 0000.0001) %MON advcfl_uvel_max              =   3.2411804031106E-02
(PID.TID 0000.0001) %MON advcfl_vvel_max              =   1.3072240592231E-02
(PID.TID 0000.0001) %MON advcfl_wvel_max              =   2.1573655509146E-01
(PID.TID 0000.0001) %MON advcfl_W_hf_max              =   1.8207111190043E-01
(PID.TID 0000.0001) %MON pe_b_mean                    =   1.5473269978056E-04
(PID.TID 0000.0001) %MON ke_max                       =   1.2003199982374E-02
(PID.TID 0000.0001) %MON ke_mean                      =   2.7575761712977E-04
(PID.TID 0000.0001) %MON ke_vol                       =   1.3226782436723E+18
(PID.TID 0000.0001) %MON vort_r_min                   =  -4.8129612415280E-07
(PID.TID 0000.0001) %MON vort_r_max                   =   7.9698724885658E-07
(PID.TID 0000.0001) %MON vort_a_mean                  =  -2.5205769517081E-05
(PID.TID 0000.0001) %MON vort_a_sd                    =   7.3401419396359E-05
(PID.TID 0000.0001) %MON vort_p_mean                  =  -3.1758669713256E-05
(PID.TID 0000.0001) %MON vort_p_sd                    =   1.3125977968231E-04
(PID.TID 0000.0001) %MON surfExpan_theta_mean         =   1.2074625486713E-04
(PID.TID 0000.0001) %MON surfExpan_salt_mean          =   7.7075897173427E-06
(PID.TID 0000.0001) // =======================================================
(PID.TID 0000.0001) // End MONITOR dynamic field statistics
(PID.TID 0000.0001) // =======================================================
time,SST,SSS,fu,fv,Q,E-P,i0,i1,a,b =   6.0480E+05  4.7561E-01  3.4527E+01 -3.8229E-02 -6.0721E-02  2.6541E+02  0.0000E+00    12     1  7.3333E-01  2.6667E-01
time,fu0,fu1,fu =   6.0480E+05 -4.5368E-02 -3.5633E-02 -3.8229E-02  7.3333E-01  2.6667E-01
 cg2d: Sum(rhs),rhsMax =   6.47312065060746E-15  1.00868019718989E+01
(PID.TID 0000.0001)                    cg2d_init_res =    8.67243365523181E-01
(PID.TID 0000.0001)                       cg2d_iters =    25
(PID.TID 0000.0001)                         cg2d_res =    5.35793833536279E-14
(PID.TID 0000.0001) // =======================================================
(PID.TID 0000.0001) // Begin MONITOR dynamic field statistics
(PID.TID 0000.0001) // =======================================================
(PID.TID 0000.0001) %MON time_tsnumber                =                    15
(PID.TID 0000.0001) %MON time_secondsf                =   6.4800000000000E+05
(PID.TID 0000.0001) %MON dynstat_eta_max              =   1.2150971531379E+00
(PID.TID 0000.0001) %MON dynstat_eta_min              =  -1.3020601897046E+00
(PID.TID 0000.0001) %MON dynstat_eta_mean             =   1.1744286542964E-17
(PID.TID 0000.0001) %MON dynstat_eta_sd               =   3.5979594103118E-01
(PID.TID 0000.0001) %MON dynstat_eta_del2             =   2.1424781538320E-02
(PID.TID 0000.0001) %MON dynstat_uvel_max             =   1.6200762688665E-01
(PID.TID 0000.0001) %MON dynstat_uvel_min             =  -1.5433012197518E-01
(PID.TID 0000.0001) %MON dynstat_uvel_mean            =  -1.0004445589766E-02
(PID.TID 0000.0001) %MON dynstat_uvel_sd              =   1.6593270146533E-02
(PID.TID 0000.0001) %MON dynstat_uvel_del2            =   4.2923918828697E-03
(PID.TID 0000.0001) %MON dynstat_vvel_max             =   1.3606226549395E-01
(PID.TID 0000.0001) %MON dynstat_vvel_min             =  -1.3776614625875E-01
(PID.TID 0000.0001) %MON dynstat_vvel_mean            =   4.0315326018381E-03
(PID.TID 0000.0001) %MON dynstat_vvel_sd              =   1.5760332812025E-02
(PID.TID 0000.0001) %MON dynstat_vvel_del2            =   4.5770307316398E-03
(PID.TID 0000.0001) %MON dynstat_wvel_max             =   3.7148192378574E-04
(PID.TID 0000.0001) %MON dynstat_wvel_min             =  -4.7123660312779E-04
(PID.TID 0000.0001) %MON dynstat_wvel_mean            =  -9.8883453919554E-22
(PID.TID 0000.0001) %MON dynstat_wvel_sd              =   4.1606746317777E-05
(PID.TID 0000.0001) %MON dynstat_wvel_del2            =   1.6167259485275E-05
(PID.TID 0000.0001) %MON dynstat_theta_max            =   2.9542395231782E+01
(PID.TID 0000.0001) %MON dynstat_theta_min            =  -2.0208385547356E+00
(PID.TID 0000.0001) %MON dynstat_theta_mean           =   3.5970762147526E+00
(PID.TID 0000.0001) %MON dynstat_theta_sd             =   4.3614662069263E+00
(PID.TID 0000.0001) %MON dynstat_theta_del2           =   1.3751048349820E-01
(PID.TID 0000.0001) %MON dynstat_salt_max             =   3.7430915336348E+01
(PID.TID 0000.0001) %MON dynstat_salt_min             =   2.9797349653746E+01
(PID.TID 0000.0001) %MON dynstat_salt_mean            =   3.4716262412586E+01
(PID.TID 0000.0001) %MON dynstat_salt_sd              =   2.9552851352006E-01
(PID.TID 0000.0001) %MON dynstat_salt_del2            =   2.5416727829259E-02
(PID.TID 0000.0001) %MON advcfl_uvel_max              =   3.5305134337944E-02
(PID.TID 0000.0001) %MON advcfl_vvel_max              =   1.3382876357365E-02
(PID.TID 0000.0001) %MON advcfl_wvel_max              =   1.9084898055070E-01
(PID.TID 0000.0001) %MON advcfl_W_hf_max              =   1.5963714451519E-01
(PID.TID 0000.0001) %MON pe_b_mean                    =   1.6565086934493E-04
(PID.TID 0000.0001) %MON ke_max                       =   1.3368001581622E-02
(PID.TID 0000.0001) %MON ke_mean                      =   2.8937060846969E-04
(PID.TID 0000.0001) %MON ke_vol                       =   1.3226782436723E+18
(PID.TID 0000.0001) %MON vort_r_min                   =  -5.1855959119914E-07
(PID.TID 0000.0001) %MON vort_r_max                   =   8.1700958209799E-07
(PID.TID 0000.0001) %MON vort_a_mean                  =  -2.5205769502932E-05
(PID.TID 0000.0001) %MON vort_a_sd                    =   7.3401356308248E-05
(PID.TID 0000.0001) %MON vort_p_mean                  =  -3.1758669695428E-05
(PID.TID 0000.0001) %MON vort_p_sd                    =   1.3125946107125E-04
(PID.TID 0000.0001) %MON surfExpan_theta_mean         =   1.0787915284047E-04
(PID.TID 0000.0001) %MON surfExpan_salt_mean          =   6.4304425308313E-06
(PID.TID 0000.0001) // =======================================================
(PID.TID 0000.0001) // End MONITOR dynamic field statistics
(PID.TID 0000.0001) // =======================================================
time,SST,SSS,fu,fv,Q,E-P,i0,i1,a,b =   6.4800E+05  5.0579E-01  3.4539E+01 -3.8067E-02 -6.0505E-02  2.6543E+02  0.0000E+00    12     1  7.5000E-01  2.5000E-01
time,fu0,fu1,fu =   6.4800E+05 -4.5368E-02 -3.5633E-02 -3.8067E-02  7.5000E-01  2.5000E-01
 cg2d: Sum(rhs),rhsMax =   1.50429148304543E-13  1.04478985847005E+01
(PID.TID 0000.0001)                    cg2d_init_res =    8.17030626435881E-01
(PID.TID 0000.0001)                       cg2d_iters =    25
(PID.TID 0000.0001)                         cg2d_res =    4.55835958111897E-14
(PID.TID 0000.0001) // =======================================================
(PID.TID 0000.0001) // Begin MONITOR dynamic field statistics
(PID.TID 0000.0001) // =======================================================
(PID.TID 0000.0001) %MON time_tsnumber                =                    16
(PID.TID 0000.0001) %MON time_secondsf                =   6.9120000000000E+05
(PID.TID 0000.0001) %MON dynstat_eta_max              =   1.2574087867096E+00
(PID.TID 0000.0001) %MON dynstat_eta_min              =  -1.3029341111583E+00
(PID.TID 0000.0001) %MON dynstat_eta_mean             =  -1.4222207433136E-17
(PID.TID 0000.0001) %MON dynstat_eta_sd               =   3.6963058291788E-01
(PID.TID 0000.0001) %MON dynstat_eta_del2             =   2.0994886486819E-02
(PID.TID 0000.0001) %MON dynstat_uvel_max             =   1.7017960995065E-01
(PID.TID 0000.0001) %MON dynstat_uvel_min             =  -1.5000525549260E-01
(PID.TID 0000.0001) %MON dynstat_uvel_mean            =  -1.0166170278597E-02
(PID.TID 0000.0001) %MON dynstat_uvel_sd              =   1.7422645632732E-02
(PID.TID 0000.0001) %MON dynstat_uvel_del2            =   4.4555741184679E-03
(PID.TID 0000.0001) %MON dynstat_vvel_max             =   1.4856730985174E-01
(PID.TID 0000.0001) %MON dynstat_vvel_min             =  -1.3910730378283E-01
(PID.TID 0000.0001) %MON dynstat_vvel_mean            =   3.6977189524569E-03
(PID.TID 0000.0001) %MON dynstat_vvel_sd              =   1.5688019092462E-02
(PID.TID 0000.0001) %MON dynstat_vvel_del2            =   4.7063313775199E-03
(PID.TID 0000.0001) %MON dynstat_wvel_max             =   3.7674124605459E-04
(PID.TID 0000.0001) %MON dynstat_wvel_min             =  -4.8523897027584E-04
(PID.TID 0000.0001) %MON dynstat_wvel_mean            =  -4.1198468467511E-22
(PID.TID 0000.0001) %MON dynstat_wvel_sd              =   4.1413499629332E-05
(PID.TID 0000.0001) %MON dynstat_wvel_del2            =   1.6220030977376E-05
(PID.TID 0000.0001) %MON dynstat_theta_max            =   2.9526691834252E+01
(PID.TID 0000.0001) %MON dynstat_theta_min            =  -1.9919559796655E+00
(PID.TID 0000.0001) %MON dynstat_theta_mean           =   3.5961365259911E+00
(PID.TID 0000.0001) %MON dynstat_theta_sd             =   4.3581146293172E+00
(PID.TID 0000.0001) %MON dynstat_theta_del2           =   1.3697242707044E-01
(PID.TID 0000.0001) %MON dynstat_salt_max             =   3.7428927415916E+01
(PID.TID 0000.0001) %MON dynstat_salt_min             =   2.9798282398952E+01
(PID.TID 0000.0001) %MON dynstat_salt_mean            =   3.4716212608062E+01
(PID.TID 0000.0001) %MON dynstat_salt_sd              =   2.9546409491137E-01
(PID.TID 0000.0001) %MON dynstat_salt_del2            =   2.5374118865188E-02
(PID.TID 0000.0001) %MON advcfl_uvel_max              =   3.6689459994385E-02
(PID.TID 0000.0001) %MON advcfl_vvel_max              =   1.4432122785504E-02
(PID.TID 0000.0001) %MON advcfl_wvel_max              =   1.7538773736007E-01
(PID.TID 0000.0001) %MON advcfl_W_hf_max              =   1.4544114860293E-01
(PID.TID 0000.0001) %MON pe_b_mean                    =   1.7483041744728E-04
(PID.TID 0000.0001) %MON ke_max                       =   1.4684231750808E-02
(PID.TID 0000.0001) %MON ke_mean                      =   3.0149044935475E-04
(PID.TID 0000.0001) %MON ke_vol                       =   1.3226782436723E+18
(PID.TID 0000.0001) %MON vort_r_min                   =  -5.5363633372216E-07
(PID.TID 0000.0001) %MON vort_r_max                   =   8.2105398040242E-07
(PID.TID 0000.0001) %MON vort_a_mean                  =  -2.5205769467977E-05
(PID.TID 0000.0001) %MON vort_a_sd                    =   7.3401317166134E-05
(PID.TID 0000.0001) %MON vort_p_mean                  =  -3.1758669651385E-05
(PID.TID 0000.0001) %MON vort_p_sd                    =   1.3125924520638E-04
(PID.TID 0000.0001) %MON surfExpan_theta_mean         =   9.4716093107107E-05
(PID.TID 0000.0001) %MON surfExpan_salt_mean          =   5.1751023279904E-06
(PID.TID 0000.0001) // =======================================================
(PID.TID 0000.0001) // End MONITOR dynamic field statistics
(PID.TID 0000.0001) // =======================================================
time,SST,SSS,fu,fv,Q,E-P,i0,i1,a,b =   6.9120E+05  5.3596E-01  3.4551E+01 -3.7904E-02 -6.0288E-02  2.6546E+02  0.0000E+00    12     1  7.6667E-01  2.3333E-01
time,fu0,fu1,fu =   6.9120E+05 -4.5368E-02 -3.5633E-02 -3.7904E-02  7.6667E-01  2.3333E-01
 cg2d: Sum(rhs),rhsMax =  -3.17041531916473E-13  1.05953427007009E+01
(PID.TID 0000.0001)                    cg2d_init_res =    7.88731644628978E-01
(PID.TID 0000.0001)                       cg2d_iters =    25
(PID.TID 0000.0001)                         cg2d_res =    3.90314490683533E-14
(PID.TID 0000.0001) // =======================================================
(PID.TID 0000.0001) // Begin MONITOR dynamic field statistics
(PID.TID 0000.0001) // =======================================================
(PID.TID 0000.0001) %MON time_tsnumber                =                    17
(PID.TID 0000.0001) %MON time_secondsf                =   7.3440000000000E+05
(PID.TID 0000.0001) %MON dynstat_eta_max              =   1.2748707834715E+00
(PID.TID 0000.0001) %MON dynstat_eta_min              =  -1.2907216572400E+00
(PID.TID 0000.0001) %MON dynstat_eta_mean             =   1.3835095110695E-16
(PID.TID 0000.0001) %MON dynstat_eta_sd               =   3.7736012715591E-01
(PID.TID 0000.0001) %MON dynstat_eta_del2             =   2.0524460228198E-02
(PID.TID 0000.0001) %MON dynstat_uvel_max             =   1.7774490652538E-01
(PID.TID 0000.0001) %MON dynstat_uvel_min             =  -1.4926336333044E-01
(PID.TID 0000.0001) %MON dynstat_uvel_mean            =  -1.0201740346517E-02
(PID.TID 0000.0001) %MON dynstat_uvel_sd              =   1.8160924158535E-02
(PID.TID 0000.0001) %MON dynstat_uvel_del2            =   4.6020512039202E-03
(PID.TID 0000.0001) %MON dynstat_vvel_max             =   1.5778040583614E-01
(PID.TID 0000.0001) %MON dynstat_vvel_min             =  -1.3918944812097E-01
(PID.TID 0000.0001) %MON dynstat_vvel_mean            =   3.3734524609761E-03
(PID.TID 0000.0001) %MON dynstat_vvel_sd              =   1.5646817169437E-02
(PID.TID 0000.0001) %MON dynstat_vvel_del2            =   4.8209120487170E-03
(PID.TID 0000.0001) %MON dynstat_wvel_max             =   3.8030660158965E-04
(PID.TID 0000.0001) %MON dynstat_wvel_min             =  -4.9520204497049E-04
(PID.TID 0000.0001) %MON dynstat_wvel_mean            =  -2.6394884921406E-22
(PID.TID 0000.0001) %MON dynstat_wvel_sd              =   4.1066128777127E-05
(PID.TID 0000.0001) %MON dynstat_wvel_del2            =   1.6200425305983E-05
(PID.TID 0000.0001) %MON dynstat_theta_max            =   2.9503598297218E+01
(PID.TID 0000.0001) %MON dynstat_theta_min            =  -1.9537479255897E+00
(PID.TID 0000.0001) %MON dynstat_theta_mean           =   3.5953453291309E+00
(PID.TID 0000.0001) %MON dynstat_theta_sd             =   4.3550514440092E+00
(PID.TID 0000.0001) %MON dynstat_theta_del2           =   1.3650108662037E-01
(PID.TID 0000.0001) %MON dynstat_salt_max             =   3.7427216109477E+01
(PID.TID 0000.0001) %MON dynstat_salt_min             =   2.9798974427378E+01
(PID.TID 0000.0001) %MON dynstat_salt_mean            =   3.4716176125578E+01
(PID.TID 0000.0001) %MON dynstat_salt_sd              =   2.9540165448831E-01
(PID.TID 0000.0001) %MON dynstat_salt_del2            =   2.5338743649181E-02
(PID.TID 0000.0001) %MON advcfl_uvel_max              =   3.6321893762506E-02
(PID.TID 0000.0001) %MON advcfl_vvel_max              =   1.5327101180241E-02
(PID.TID 0000.0001) %MON advcfl_wvel_max              =   1.8233824504565E-01
(PID.TID 0000.0001) %MON advcfl_W_hf_max              =   1.4646710037266E-01
(PID.TID 0000.0001) %MON pe_b_mean                    =   1.8221881554847E-04
(PID.TID 0000.0001) %MON ke_max                       =   1.5930332432856E-02
(PID.TID 0000.0001) %MON ke_mean                      =   3.1214570518830E-04
(PID.TID 0000.0001) %MON ke_vol                       =   1.3226782436723E+18
(PID.TID 0000.0001) %MON vort_r_min                   =  -5.8595818743625E-07
(PID.TID 0000.0001) %MON vort_r_max                   =   8.0862427111130E-07
(PID.TID 0000.0001) %MON vort_a_mean                  =  -2.5205769416497E-05
(PID.TID 0000.0001) %MON vort_a_sd                    =   7.3401301437850E-05
(PID.TID 0000.0001) %MON vort_p_mean                  =  -3.1758669586522E-05
(PID.TID 0000.0001) %MON vort_p_sd                    =   1.3125912905001E-04
(PID.TID 0000.0001) %MON surfExpan_theta_mean         =   8.1561334666960E-05
(PID.TID 0000.0001) %MON surfExpan_salt_mean          =   3.9638053755237E-06
(PID.TID 0000.0001) // =======================================================
(PID.TID 0000.0001) // End MONITOR dynamic field statistics
(PID.TID 0000.0001) // =======================================================
time,SST,SSS,fu,fv,Q,E-P,i0,i1,a,b =   7.3440E+05  5.6614E-01  3.4563E+01 -3.7742E-02 -6.0072E-02  2.6548E+02  0.0000E+00    12     1  7.8333E-01  2.1667E-01
time,fu0,fu1,fu =   7.3440E+05 -4.5368E-02 -3.5633E-02 -3.7742E-02  7.8333E-01  2.1667E-01
 cg2d: Sum(rhs),rhsMax =  -1.87157581099662E-13  1.05352089710678E+01
(PID.TID 0000.0001)                    cg2d_init_res =    7.78419642629618E-01
(PID.TID 0000.0001)                       cg2d_iters =    24
(PID.TID 0000.0001)                         cg2d_res =    8.31053333692451E-14
(PID.TID 0000.0001) // =======================================================
(PID.TID 0000.0001) // Begin MONITOR dynamic field statistics
(PID.TID 0000.0001) // =======================================================
(PID.TID 0000.0001) %MON time_tsnumber                =                    18
(PID.TID 0000.0001) %MON time_secondsf                =   7.7760000000000E+05
(PID.TID 0000.0001) %MON dynstat_eta_max              =   1.2682928986697E+00
(PID.TID 0000.0001) %MON dynstat_eta_min              =  -1.3239455286137E+00
(PID.TID 0000.0001) %MON dynstat_eta_mean             =   1.7067134395238E-16
(PID.TID 0000.0001) %MON dynstat_eta_sd               =   3.8315589719928E-01
(PID.TID 0000.0001) %MON dynstat_eta_del2             =   2.0036438526842E-02
(PID.TID 0000.0001) %MON dynstat_uvel_max             =   1.8463748836788E-01
(PID.TID 0000.0001) %MON dynstat_uvel_min             =  -1.4757367224229E-01
(PID.TID 0000.0001) %MON dynstat_uvel_mean            =  -1.0120072432761E-02
(PID.TID 0000.0001) %MON dynstat_uvel_sd              =   1.8811088511298E-02
(PID.TID 0000.0001) %MON dynstat_uvel_del2            =   4.7333774076484E-03
(PID.TID 0000.0001) %MON dynstat_vvel_max             =   1.6303094450925E-01
(PID.TID 0000.0001) %MON dynstat_vvel_min             =  -1.4241239671589E-01
(PID.TID 0000.0001) %MON dynstat_vvel_mean            =   3.0750086743763E-03
(PID.TID 0000.0001) %MON dynstat_vvel_sd              =   1.5639968812937E-02
(PID.TID 0000.0001) %MON dynstat_vvel_del2            =   4.9225562089215E-03
(PID.TID 0000.0001) %MON dynstat_wvel_max             =   3.8222619388709E-04
(PID.TID 0000.0001) %MON dynstat_wvel_min             =  -5.0146848615488E-04
(PID.TID 0000.0001) %MON dynstat_wvel_mean            =   5.6472551104097E-22
(PID.TID 0000.0001) %MON dynstat_wvel_sd              =   4.0586441725019E-05
(PID.TID 0000.0001) %MON dynstat_wvel_del2            =   1.6102841431394E-05
(PID.TID 0000.0001) %MON dynstat_theta_max            =   2.9473499848593E+01
(PID.TID 0000.0001) %MON dynstat_theta_min            =  -1.9379241520772E+00
(PID.TID 0000.0001) %MON dynstat_theta_mean           =   3.5946975167554E+00
(PID.TID 0000.0001) %MON dynstat_theta_sd             =   4.3523009800034E+00
(PID.TID 0000.0001) %MON dynstat_theta_del2           =   1.3609199863449E-01
(PID.TID 0000.0001) %MON dynstat_salt_max             =   3.7425735813509E+01
(PID.TID 0000.0001) %MON dynstat_salt_min             =   2.9799457938398E+01
(PID.TID 0000.0001) %MON dynstat_salt_mean            =   3.4716152148652E+01
(PID.TID 0000.0001) %MON dynstat_salt_sd              =   2.9534132500839E-01
(PID.TID 0000.0001) %MON dynstat_salt_del2            =   2.5309663675320E-02
(PID.TID 0000.0001) %MON advcfl_uvel_max              =   3.4101498370505E-02
(PID.TID 0000.0001) %MON advcfl_vvel_max              =   1.5837148908076E-02
(PID.TID 0000.0001) %MON advcfl_wvel_max              =   1.8821404242862E-01
(PID.TID 0000.0001) %MON advcfl_W_hf_max              =   1.5172406486194E-01
(PID.TID 0000.0001) %MON pe_b_mean                    =   1.8785909621125E-04
(PID.TID 0000.0001) %MON ke_max                       =   1.7090661927078E-02
(PID.TID 0000.0001) %MON ke_mean                      =   3.2135229441018E-04
(PID.TID 0000.0001) %MON ke_vol                       =   1.3226782436723E+18
(PID.TID 0000.0001) %MON vort_r_min                   =  -6.1505833352645E-07
(PID.TID 0000.0001) %MON vort_r_max                   =   7.7959667483094E-07
(PID.TID 0000.0001) %MON vort_a_mean                  =  -2.5205769353998E-05
(PID.TID 0000.0001) %MON vort_a_sd                    =   7.3401307861935E-05
(PID.TID 0000.0001) %MON vort_p_mean                  =  -3.1758669507775E-05
(PID.TID 0000.0001) %MON vort_p_sd                    =   1.3125910421061E-04
(PID.TID 0000.0001) %MON surfExpan_theta_mean         =   6.8708429759106E-05
(PID.TID 0000.0001) %MON surfExpan_salt_mean          =   2.8182207948161E-06
(PID.TID 0000.0001) // =======================================================
(PID.TID 0000.0001) // End MONITOR dynamic field statistics
(PID.TID 0000.0001) // =======================================================
time,SST,SSS,fu,fv,Q,E-P,i0,i1,a,b =   7.7760E+05  5.9632E-01  3.4574E+01 -3.7580E-02 -5.9855E-02  2.6550E+02  0.0000E+00    12     1  8.0000E-01  2.0000E-01
time,fu0,fu1,fu =   7.7760E+05 -4.5368E-02 -3.5633E-02 -3.7580E-02  8.0000E-01  2.0000E-01
 cg2d: Sum(rhs),rhsMax =  -1.56144194796148E-13  1.02854226332882E+01
(PID.TID 0000.0001)                    cg2d_init_res =    7.83476917448184E-01
(PID.TID 0000.0001)                       cg2d_iters =    25
(PID.TID 0000.0001)                         cg2d_res =    2.89423873704502E-14
(PID.TID 0000.0001) // =======================================================
(PID.TID 0000.0001) // Begin MONITOR dynamic field statistics
(PID.TID 0000.0001) // =======================================================
(PID.TID 0000.0001) %MON time_tsnumber                =                    19
(PID.TID 0000.0001) %MON time_secondsf                =   8.2080000000000E+05
(PID.TID 0000.0001) %MON dynstat_eta_max              =   1.2398174595448E+00
(PID.TID 0000.0001) %MON dynstat_eta_min              =  -1.3183821531226E+00
(PID.TID 0000.0001) %MON dynstat_eta_mean             =  -1.7498202587858E-16
(PID.TID 0000.0001) %MON dynstat_eta_sd               =   3.8722680958895E-01
(PID.TID 0000.0001) %MON dynstat_eta_del2             =   1.9596425638710E-02
(PID.TID 0000.0001) %MON dynstat_uvel_max             =   1.9077797690601E-01
(PID.TID 0000.0001) %MON dynstat_uvel_min             =  -1.4695700606195E-01
(PID.TID 0000.0001) %MON dynstat_uvel_mean            =  -9.9331469139679E-03
(PID.TID 0000.0001) %MON dynstat_uvel_sd              =   1.9377113608098E-02
(PID.TID 0000.0001) %MON dynstat_uvel_del2            =   4.8477814587037E-03
(PID.TID 0000.0001) %MON dynstat_vvel_max             =   1.6383021687988E-01
(PID.TID 0000.0001) %MON dynstat_vvel_min             =  -1.4406034908324E-01
(PID.TID 0000.0001) %MON dynstat_vvel_mean            =   2.8155158136410E-03
(PID.TID 0000.0001) %MON dynstat_vvel_sd              =   1.5664007412123E-02
(PID.TID 0000.0001) %MON dynstat_vvel_del2            =   5.0117912373053E-03
(PID.TID 0000.0001) %MON dynstat_wvel_max             =   3.8248369520826E-04
(PID.TID 0000.0001) %MON dynstat_wvel_min             =  -5.0420801146301E-04
(PID.TID 0000.0001) %MON dynstat_wvel_mean            =  -5.6853052451386E-23
(PID.TID 0000.0001) %MON dynstat_wvel_sd              =   3.9996481316001E-05
(PID.TID 0000.0001) %MON dynstat_wvel_del2            =   1.5933719589736E-05
(PID.TID 0000.0001) %MON dynstat_theta_max            =   2.9456764360608E+01
(PID.TID 0000.0001) %MON dynstat_theta_min            =  -1.9330911548093E+00
(PID.TID 0000.0001) %MON dynstat_theta_mean           =   3.5941850280773E+00
(PID.TID 0000.0001) %MON dynstat_theta_sd             =   4.3498818756668E+00
(PID.TID 0000.0001) %MON dynstat_theta_del2           =   1.3573620504285E-01
(PID.TID 0000.0001) %MON dynstat_salt_max             =   3.7424439547495E+01
(PID.TID 0000.0001) %MON dynstat_salt_min             =   2.9799768784671E+01
(PID.TID 0000.0001) %MON dynstat_salt_mean            =   3.4716139638951E+01
(PID.TID 0000.0001) %MON dynstat_salt_sd              =   2.9528453676074E-01
(PID.TID 0000.0001) %MON dynstat_salt_del2            =   2.5286825780914E-02
(PID.TID 0000.0001) %MON advcfl_uvel_max              =   3.0090570678430E-02
(PID.TID 0000.0001) %MON advcfl_vvel_max              =   1.5914791809489E-02
(PID.TID 0000.0001) %MON advcfl_wvel_max              =   1.8863404682771E-01
(PID.TID 0000.0001) %MON advcfl_W_hf_max              =   1.6361084063741E-01
(PID.TID 0000.0001) %MON pe_b_mean                    =   1.9187219158879E-04
(PID.TID 0000.0001) %MON ke_max                       =   1.8155266444455E-02
(PID.TID 0000.0001) %MON ke_mean                      =   3.2912115225870E-04
(PID.TID 0000.0001) %MON ke_vol                       =   1.3226782436723E+18
(PID.TID 0000.0001) %MON vort_r_min                   =  -6.4060539698543E-07
(PID.TID 0000.0001) %MON vort_r_max                   =   7.3424407343927E-07
(PID.TID 0000.0001) %MON vort_a_mean                  =  -2.5205769286434E-05
(PID.TID 0000.0001) %MON vort_a_sd                    =   7.3401334597893E-05
(PID.TID 0000.0001) %MON vort_p_mean                  =  -3.1758669422645E-05
(PID.TID 0000.0001) %MON vort_p_sd                    =   1.3125915856445E-04
(PID.TID 0000.0001) %MON surfExpan_theta_mean         =   5.6384696368636E-05
(PID.TID 0000.0001) %MON surfExpan_salt_mean          =   1.7477636174064E-06
(PID.TID 0000.0001) // =======================================================
(PID.TID 0000.0001) // End MONITOR dynamic field statistics
(PID.TID 0000.0001) // =======================================================
time,SST,SSS,fu,fv,Q,E-P,i0,i1,a,b =   8.2080E+05  6.2649E-01  3.4586E+01 -3.7418E-02 -5.9638E-02  2.6552E+02  0.0000E+00    12     1  8.1667E-01  1.8333E-01
time,fu0,fu1,fu =   8.2080E+05 -4.5368E-02 -3.5633E-02 -3.7418E-02  8.1667E-01  1.8333E-01
 cg2d: Sum(rhs),rhsMax =   1.43201422941885E-14  9.89942675036037E+00
(PID.TID 0000.0001)                    cg2d_init_res =    8.00116479653036E-01
(PID.TID 0000.0001)                       cg2d_iters =    25
(PID.TID 0000.0001)                         cg2d_res =    2.72752479596801E-14
(PID.TID 0000.0001) // =======================================================
(PID.TID 0000.0001) // Begin MONITOR dynamic field statistics
(PID.TID 0000.0001) // =======================================================
(PID.TID 0000.0001) %MON time_tsnumber                =                    20
(PID.TID 0000.0001) %MON time_secondsf                =   8.6400000000000E+05
(PID.TID 0000.0001) %MON dynstat_eta_max              =   1.1926923736767E+00
(PID.TID 0000.0001) %MON dynstat_eta_min              =  -1.2768092052598E+00
(PID.TID 0000.0001) %MON dynstat_eta_mean             =   1.9373300004534E-17
(PID.TID 0000.0001) %MON dynstat_eta_sd               =   3.8980464293023E-01
(PID.TID 0000.0001) %MON dynstat_eta_del2             =   1.9264985255615E-02
(PID.TID 0000.0001) %MON dynstat_uvel_max             =   1.9607684177466E-01
(PID.TID 0000.0001) %MON dynstat_uvel_min             =  -1.5362269427030E-01
(PID.TID 0000.0001) %MON dynstat_uvel_mean            =  -9.6550723844132E-03
(PID.TID 0000.0001) %MON dynstat_uvel_sd              =   1.9863128196677E-02
(PID.TID 0000.0001) %MON dynstat_uvel_del2            =   4.9480477665463E-03
(PID.TID 0000.0001) %MON dynstat_vvel_max             =   1.5990981411104E-01
(PID.TID 0000.0001) %MON dynstat_vvel_min             =  -1.4412949998659E-01
(PID.TID 0000.0001) %MON dynstat_vvel_mean            =   2.6046031520363E-03
(PID.TID 0000.0001) %MON dynstat_vvel_sd              =   1.5711596314653E-02
(PID.TID 0000.0001) %MON dynstat_vvel_del2            =   5.0886230414529E-03
(PID.TID 0000.0001) %MON dynstat_wvel_max             =   3.8105312266704E-04
(PID.TID 0000.0001) %MON dynstat_wvel_min             =  -5.0340447858613E-04
(PID.TID 0000.0001) %MON dynstat_wvel_mean            =  -2.8679094729664E-22
(PID.TID 0000.0001) %MON dynstat_wvel_sd              =   3.9318461055740E-05
(PID.TID 0000.0001) %MON dynstat_wvel_del2            =   1.5713229456086E-05
(PID.TID 0000.0001) %MON dynstat_theta_max            =   2.9453918402044E+01
(PID.TID 0000.0001) %MON dynstat_theta_min            =  -1.9299556189435E+00
(PID.TID 0000.0001) %MON dynstat_theta_mean           =   3.5937981469424E+00
(PID.TID 0000.0001) %MON dynstat_theta_sd             =   4.3478065392143E+00
(PID.TID 0000.0001) %MON dynstat_theta_del2           =   1.3543840643559E-01
(PID.TID 0000.0001) %MON dynstat_salt_max             =   3.7423271958535E+01
(PID.TID 0000.0001) %MON dynstat_salt_min             =   2.9799944615082E+01
(PID.TID 0000.0001) %MON dynstat_salt_mean            =   3.4716137532865E+01
(PID.TID 0000.0001) %MON dynstat_salt_sd              =   2.9523128999742E-01
(PID.TID 0000.0001) %MON dynstat_salt_del2            =   2.5269136131772E-02
(PID.TID 0000.0001) %MON advcfl_uvel_max              =   3.0382306422946E-02
(PID.TID 0000.0001) %MON advcfl_vvel_max              =   1.5533956118347E-02
(PID.TID 0000.0001) %MON advcfl_wvel_max              =   1.8316814029410E-01
(PID.TID 0000.0001) %MON advcfl_W_hf_max              =   1.6675221338873E-01
(PID.TID 0000.0001) %MON pe_b_mean                    =   1.9443534520368E-04
(PID.TID 0000.0001) %MON ke_max                       =   1.9119040353927E-02
(PID.TID 0000.0001) %MON ke_mean                      =   3.3546801025702E-04
(PID.TID 0000.0001) %MON ke_vol                       =   1.3226782436723E+18
(PID.TID 0000.0001) %MON vort_r_min                   =  -6.6243243101588E-07
(PID.TID 0000.0001) %MON vort_r_max                   =   6.7328482279075E-07
(PID.TID 0000.0001) %MON vort_a_mean                  =  -2.5205769219529E-05
(PID.TID 0000.0001) %MON vort_a_sd                    =   7.3401379382338E-05
(PID.TID 0000.0001) %MON vort_p_mean                  =  -3.1758669338346E-05
(PID.TID 0000.0001) %MON vort_p_sd                    =   1.3125927788512E-04
(PID.TID 0000.0001) %MON surfExpan_theta_mean         =   4.4824312055882E-05
(PID.TID 0000.0001) %MON surfExpan_salt_mean          =   7.6963895618488E-07
(PID.TID 0000.0001) // =======================================================
(PID.TID 0000.0001) // End MONITOR dynamic field statistics
(PID.TID 0000.0001) // =======================================================
time,SST,SSS,fu,fv,Q,E-P,i0,i1,a,b =   8.6400E+05  6.5667E-01  3.4598E+01 -3.7255E-02 -5.9422E-02  2.6555E+02  0.0000E+00    12     1  8.3333E-01  1.6667E-01
time,fu0,fu1,fu =   8.6400E+05 -4.5368E-02 -3.5633E-02 -3.7255E-02  8.3333E-01  1.6667E-01
 cg2d: Sum(rhs),rhsMax =  -2.38363148663545E-13  1.09313661371491E+01
(PID.TID 0000.0001)                    cg2d_init_res =    7.11714637516648E-01
(PID.TID 0000.0001)                       cg2d_iters =    25
(PID.TID 0000.0001)                         cg2d_res =    3.01288751617483E-14
(PID.TID 0000.0001) // =======================================================
(PID.TID 0000.0001) // Begin MONITOR dynamic field statistics
(PID.TID 0000.0001) // =======================================================
(PID.TID 0000.0001) %MON time_tsnumber                =                    21
(PID.TID 0000.0001) %MON time_secondsf                =   9.0720000000000E+05
(PID.TID 0000.0001) %MON dynstat_eta_max              =   1.3007185096294E+00
(PID.TID 0000.0001) %MON dynstat_eta_min              =  -1.2131364401452E+00
(PID.TID 0000.0001) %MON dynstat_eta_mean             =  -6.0318736850014E-17
(PID.TID 0000.0001) %MON dynstat_eta_sd               =   3.9112961034528E-01
(PID.TID 0000.0001) %MON dynstat_eta_del2             =   1.9078466889414E-02
(PID.TID 0000.0001) %MON dynstat_uvel_max             =   2.0043960023430E-01
(PID.TID 0000.0001) %MON dynstat_uvel_min             =  -1.6097227218511E-01
(PID.TID 0000.0001) %MON dynstat_uvel_mean            =  -9.3011968345333E-03
(PID.TID 0000.0001) %MON dynstat_uvel_sd              =   2.0272777114890E-02
(PID.TID 0000.0001) %MON dynstat_uvel_del2            =   5.0362133701172E-03
(PID.TID 0000.0001) %MON dynstat_vvel_max             =   1.5123383417137E-01
(PID.TID 0000.0001) %MON dynstat_vvel_min             =  -1.4339181155353E-01
(PID.TID 0000.0001) %MON dynstat_vvel_mean            =   2.4483207150906E-03
(PID.TID 0000.0001) %MON dynstat_vvel_sd              =   1.5774381649619E-02
(PID.TID 0000.0001) %MON dynstat_vvel_del2            =   5.1546200161609E-03
(PID.TID 0000.0001) %MON dynstat_wvel_max             =   3.7793540648493E-04
(PID.TID 0000.0001) %MON dynstat_wvel_min             =  -4.9896312548560E-04
(PID.TID 0000.0001) %MON dynstat_wvel_mean            =  -2.0879595137272E-22
(PID.TID 0000.0001) %MON dynstat_wvel_sd              =   3.8574236771602E-05
(PID.TID 0000.0001) %MON dynstat_wvel_del2            =   1.5451793300001E-05
(PID.TID 0000.0001) %MON dynstat_theta_max            =   2.9455893679440E+01
(PID.TID 0000.0001) %MON dynstat_theta_min            =  -1.9286646803877E+00
(PID.TID 0000.0001) %MON dynstat_theta_mean           =   3.5935247550355E+00
(PID.TID 0000.0001) %MON dynstat_theta_sd             =   4.3460784522076E+00
(PID.TID 0000.0001) %MON dynstat_theta_del2           =   1.3521119230783E-01
(PID.TID 0000.0001) %MON dynstat_salt_max             =   3.7422184122342E+01
(PID.TID 0000.0001) %MON dynstat_salt_min             =   2.9800023117276E+01
(PID.TID 0000.0001) %MON dynstat_salt_mean            =   3.4716144528677E+01
(PID.TID 0000.0001) %MON dynstat_salt_sd              =   2.9518124439896E-01
(PID.TID 0000.0001) %MON dynstat_salt_del2            =   2.5255350926523E-02
(PID.TID 0000.0001) %MON advcfl_uvel_max              =   3.0395925982536E-02
(PID.TID 0000.0001) %MON advcfl_vvel_max              =   1.4691154240203E-02
(PID.TID 0000.0001) %MON advcfl_wvel_max              =   1.7166046488232E-01
(PID.TID 0000.0001) %MON advcfl_W_hf_max              =   1.6291631803582E-01
(PID.TID 0000.0001) %MON pe_b_mean                    =   1.9575938448605E-04
(PID.TID 0000.0001) %MON ke_max                       =   1.9980507977807E-02
(PID.TID 0000.0001) %MON ke_mean                      =   3.4042304760097E-04
(PID.TID 0000.0001) %MON ke_vol                       =   1.3226782436723E+18
(PID.TID 0000.0001) %MON vort_r_min                   =  -6.8055437821061E-07
(PID.TID 0000.0001) %MON vort_r_max                   =   6.0920329030776E-07
(PID.TID 0000.0001) %MON vort_a_mean                  =  -2.5205769158280E-05
(PID.TID 0000.0001) %MON vort_a_sd                    =   7.3401439680377E-05
(PID.TID 0000.0001) %MON vort_p_mean                  =  -3.1758669261174E-05
(PID.TID 0000.0001) %MON vort_p_sd                    =   1.3125944734098E-04
(PID.TID 0000.0001) %MON surfExpan_theta_mean         =   3.4216963425197E-05
(PID.TID 0000.0001) %MON surfExpan_salt_mean          =  -1.0379697814711E-07
(PID.TID 0000.0001) // =======================================================
(PID.TID 0000.0001) // End MONITOR dynamic field statistics
(PID.TID 0000.0001) // =======================================================
time,SST,SSS,fu,fv,Q,E-P,i0,i1,a,b =   9.0720E+05  6.8684E-01  3.4609E+01 -3.7093E-02 -5.9205E-02  2.6557E+02  0.0000E+00    12     1  8.5000E-01  1.5000E-01
time,fu0,fu1,fu =   9.0720E+05 -4.5368E-02 -3.5633E-02 -3.7093E-02  8.5000E-01  1.5000E-01
 cg2d: Sum(rhs),rhsMax =  -5.91714177655689E-15  1.18621214870367E+01
(PID.TID 0000.0001)                    cg2d_init_res =    6.43345618175076E-01
(PID.TID 0000.0001)                       cg2d_iters =    25
(PID.TID 0000.0001)                         cg2d_res =    3.11563498274279E-14
(PID.TID 0000.0001) // =======================================================
(PID.TID 0000.0001) // Begin MONITOR dynamic field statistics
(PID.TID 0000.0001) // =======================================================
(PID.TID 0000.0001) %MON time_tsnumber                =                    22
(PID.TID 0000.0001) %MON time_secondsf                =   9.5040000000000E+05
(PID.TID 0000.0001) %MON dynstat_eta_max              =   1.4078293745499E+00
(PID.TID 0000.0001) %MON dynstat_eta_min              =  -1.1672820215671E+00
(PID.TID 0000.0001) %MON dynstat_eta_mean             =  -1.1279928776233E-16
(PID.TID 0000.0001) %MON dynstat_eta_sd               =   3.9143739550767E-01
(PID.TID 0000.0001) %MON dynstat_eta_del2             =   1.8988758779952E-02
(PID.TID 0000.0001) %MON dynstat_uvel_max             =   2.0377215657346E-01
(PID.TID 0000.0001) %MON dynstat_uvel_min             =  -1.7728210359539E-01
(PID.TID 0000.0001) %MON dynstat_uvel_mean            =  -8.8873330704236E-03
(PID.TID 0000.0001) %MON dynstat_uvel_sd              =   2.0608892784790E-02
(PID.TID 0000.0001) %MON dynstat_uvel_del2            =   5.1117711875638E-03
(PID.TID 0000.0001) %MON dynstat_vvel_max             =   1.4205322943418E-01
(PID.TID 0000.0001) %MON dynstat_vvel_min             =  -1.4861279369053E-01
(PID.TID 0000.0001) %MON dynstat_vvel_mean            =   2.3492856333488E-03
(PID.TID 0000.0001) %MON dynstat_vvel_sd              =   1.5845232607586E-02
(PID.TID 0000.0001) %MON dynstat_vvel_del2            =   5.2089698606115E-03
(PID.TID 0000.0001) %MON dynstat_wvel_max             =   3.7317467911798E-04
(PID.TID 0000.0001) %MON dynstat_wvel_min             =  -4.9079444995018E-04
(PID.TID 0000.0001) %MON dynstat_wvel_mean            =  -2.3522051849788E-22
(PID.TID 0000.0001) %MON dynstat_wvel_sd              =   3.7785391696635E-05
(PID.TID 0000.0001) %MON dynstat_wvel_del2            =   1.5156511111355E-05
(PID.TID 0000.0001) %MON dynstat_theta_max            =   2.9458020708809E+01
(PID.TID 0000.0001) %MON dynstat_theta_min            =  -1.9289742551482E+00
(PID.TID 0000.0001) %MON dynstat_theta_mean           =   3.5933513429838E+00
(PID.TID 0000.0001) %MON dynstat_theta_sd             =   4.3446935630557E+00
(PID.TID 0000.0001) %MON dynstat_theta_del2           =   1.3504377340304E-01
(PID.TID 0000.0001) %MON dynstat_salt_max             =   3.7421141649594E+01
(PID.TID 0000.0001) %MON dynstat_salt_min             =   2.9800047031404E+01
(PID.TID 0000.0001) %MON dynstat_salt_mean            =   3.4716159223186E+01
(PID.TID 0000.0001) %MON dynstat_salt_sd              =   2.9513361137079E-01
(PID.TID 0000.0001) %MON dynstat_salt_del2            =   2.5243136913195E-02
(PID.TID 0000.0001) %MON advcfl_uvel_max              =   3.0352356274419E-02
(PID.TID 0000.0001) %MON advcfl_vvel_max              =   1.4436541175707E-02
(PID.TID 0000.0001) %MON advcfl_wvel_max              =   1.5423964548550E-01
(PID.TID 0000.0001) %MON advcfl_W_hf_max              =   1.4371090572967E-01
(PID.TID 0000.0001) %MON pe_b_mean                    =   1.9606759710325E-04
(PID.TID 0000.0001) %MON ke_max                       =   2.0740359808903E-02
(PID.TID 0000.0001) %MON ke_mean                      =   3.4403834021349E-04
(PID.TID 0000.0001) %MON ke_vol                       =   1.3226782436723E+18
(PID.TID 0000.0001) %MON vort_r_min                   =  -6.9516817015282E-07
(PID.TID 0000.0001) %MON vort_r_max                   =   6.2511341284631E-07
(PID.TID 0000.0001) %MON vort_a_mean                  =  -2.5205769106625E-05
(PID.TID 0000.0001) %MON vort_a_sd                    =   7.3401512819586E-05
(PID.TID 0000.0001) %MON vort_p_mean                  =  -3.1758669196090E-05
(PID.TID 0000.0001) %MON vort_p_sd                    =   1.3125965271700E-04
(PID.TID 0000.0001) %MON surfExpan_theta_mean         =   2.4721303815820E-05
(PID.TID 0000.0001) %MON surfExpan_salt_mean          =  -8.6046340602505E-07
(PID.TID 0000.0001) // =======================================================
(PID.TID 0000.0001) // End MONITOR dynamic field statistics
(PID.TID 0000.0001) // =======================================================
time,SST,SSS,fu,fv,Q,E-P,i0,i1,a,b =   9.5040E+05  7.1702E-01  3.4621E+01 -3.6931E-02 -5.8989E-02  2.6559E+02  0.0000E+00    12     1  8.6667E-01  1.3333E-01
time,fu0,fu1,fu =   9.5040E+05 -4.5368E-02 -3.5633E-02 -3.6931E-02  8.6667E-01  1.3333E-01
 cg2d: Sum(rhs),rhsMax =  -1.60968460782840E-13  1.26581340407864E+01
(PID.TID 0000.0001)                    cg2d_init_res =    5.90613156866524E-01
(PID.TID 0000.0001)                       cg2d_iters =    25
(PID.TID 0000.0001)                         cg2d_res =    3.12549644981612E-14
(PID.TID 0000.0001) // =======================================================
(PID.TID 0000.0001) // Begin MONITOR dynamic field statistics
(PID.TID 0000.0001) // =======================================================
(PID.TID 0000.0001) %MON time_tsnumber                =                    23
(PID.TID 0000.0001) %MON time_secondsf                =   9.9360000000000E+05
(PID.TID 0000.0001) %MON dynstat_eta_max              =   1.4990152776622E+00
(PID.TID 0000.0001) %MON dynstat_eta_min              =  -1.1212182154761E+00
(PID.TID 0000.0001) %MON dynstat_eta_mean             =  -5.0330352309969E-17
(PID.TID 0000.0001) %MON dynstat_eta_sd               =   3.9094961216826E-01
(PID.TID 0000.0001) %MON dynstat_eta_del2             =   1.8869901527391E-02
(PID.TID 0000.0001) %MON dynstat_uvel_max             =   2.0637728202390E-01
(PID.TID 0000.0001) %MON dynstat_uvel_min             =  -1.9118188969749E-01
(PID.TID 0000.0001) %MON dynstat_uvel_mean            =  -8.4291255319451E-03
(PID.TID 0000.0001) %MON dynstat_uvel_sd              =   2.0873480387639E-02
(PID.TID 0000.0001) %MON dynstat_uvel_del2            =   5.1778081963568E-03
(PID.TID 0000.0001) %MON dynstat_vvel_max             =   1.4153738571354E-01
(PID.TID 0000.0001) %MON dynstat_vvel_min             =  -1.5038273322875E-01
(PID.TID 0000.0001) %MON dynstat_vvel_mean            =   2.3069933203116E-03
(PID.TID 0000.0001) %MON dynstat_vvel_sd              =   1.5919505524582E-02
(PID.TID 0000.0001) %MON dynstat_vvel_del2            =   5.2514906725334E-03
(PID.TID 0000.0001) %MON dynstat_wvel_max             =   3.8153212295908E-04
(PID.TID 0000.0001) %MON dynstat_wvel_min             =  -4.7891208363684E-04
(PID.TID 0000.0001) %MON dynstat_wvel_mean            =  -1.3331269970006E-22
(PID.TID 0000.0001) %MON dynstat_wvel_sd              =   3.6974332735970E-05
(PID.TID 0000.0001) %MON dynstat_wvel_del2            =   1.4843029602399E-05
(PID.TID 0000.0001) %MON dynstat_theta_max            =   2.9460230036020E+01
(PID.TID 0000.0001) %MON dynstat_theta_min            =  -1.9295861526171E+00
(PID.TID 0000.0001) %MON dynstat_theta_mean           =   3.5932632814575E+00
(PID.TID 0000.0001) %MON dynstat_theta_sd             =   4.3436396268695E+00
(PID.TID 0000.0001) %MON dynstat_theta_del2           =   1.3491648729301E-01
(PID.TID 0000.0001) %MON dynstat_salt_max             =   3.7420124825868E+01
(PID.TID 0000.0001) %MON dynstat_salt_min             =   2.9800078859256E+01
(PID.TID 0000.0001) %MON dynstat_salt_mean            =   3.4716180095351E+01
(PID.TID 0000.0001) %MON dynstat_salt_sd              =   2.9508745916847E-01
(PID.TID 0000.0001) %MON dynstat_salt_del2            =   2.5231982750572E-02
(PID.TID 0000.0001) %MON advcfl_uvel_max              =   3.0999693121091E-02
(PID.TID 0000.0001) %MON advcfl_vvel_max              =   1.4608476608636E-02
(PID.TID 0000.0001) %MON advcfl_wvel_max              =   1.6401153799683E-01
(PID.TID 0000.0001) %MON advcfl_W_hf_max              =   1.5007859974275E-01
(PID.TID 0000.0001) %MON pe_b_mean                    =   1.9557924867677E-04
(PID.TID 0000.0001) %MON ke_max                       =   2.1399888108827E-02
(PID.TID 0000.0001) %MON ke_mean                      =   3.4639076572065E-04
(PID.TID 0000.0001) %MON ke_vol                       =   1.3226782436723E+18
(PID.TID 0000.0001) %MON vort_r_min                   =  -7.0752765616526E-07
(PID.TID 0000.0001) %MON vort_r_max                   =   6.4154203824180E-07
(PID.TID 0000.0001) %MON vort_a_mean                  =  -2.5205769067268E-05
(PID.TID 0000.0001) %MON vort_a_sd                    =   7.3401596100344E-05
(PID.TID 0000.0001) %MON vort_p_mean                  =  -3.1758669146502E-05
(PID.TID 0000.0001) %MON vort_p_sd                    =   1.3125988124107E-04
(PID.TID 0000.0001) %MON surfExpan_theta_mean         =   1.6457176900289E-05
(PID.TID 0000.0001) %MON surfExpan_salt_mean          =  -1.4890558102148E-06
(PID.TID 0000.0001) // =======================================================
(PID.TID 0000.0001) // End MONITOR dynamic field statistics
(PID.TID 0000.0001) // =======================================================
time,SST,SSS,fu,fv,Q,E-P,i0,i1,a,b =   9.9360E+05  7.4719E-01  3.4633E+01 -3.6769E-02 -5.8772E-02  2.6561E+02  0.0000E+00    12     1  8.8333E-01  1.1667E-01
time,fu0,fu1,fu =   9.9360E+05 -4.5368E-02 -3.5633E-02 -3.6769E-02  8.8333E-01  1.1667E-01
 cg2d: Sum(rhs),rhsMax =   3.14488018959835E-14  1.32897167539236E+01
(PID.TID 0000.0001)                    cg2d_init_res =    5.51067926847018E-01
(PID.TID 0000.0001)                       cg2d_iters =    25
(PID.TID 0000.0001)                         cg2d_res =    3.06771638767844E-14
(PID.TID 0000.0001) // =======================================================
(PID.TID 0000.0001) // Begin MONITOR dynamic field statistics
(PID.TID 0000.0001) // =======================================================
(PID.TID 0000.0001) %MON time_tsnumber                =                    24
(PID.TID 0000.0001) %MON time_secondsf                =   1.0368000000000E+06
(PID.TID 0000.0001) %MON dynstat_eta_max              =   1.5708985675426E+00
(PID.TID 0000.0001) %MON dynstat_eta_min              =  -1.1420600709309E+00
(PID.TID 0000.0001) %MON dynstat_eta_mean             =   2.2005574630635E-17
(PID.TID 0000.0001) %MON dynstat_eta_sd               =   3.8986952537338E-01
(PID.TID 0000.0001) %MON dynstat_eta_del2             =   1.8730850100496E-02
(PID.TID 0000.0001) %MON dynstat_uvel_max             =   2.0822867385351E-01
(PID.TID 0000.0001) %MON dynstat_uvel_min             =  -2.0212690731174E-01
(PID.TID 0000.0001) %MON dynstat_uvel_mean            =  -7.9415537106437E-03
(PID.TID 0000.0001) %MON dynstat_uvel_sd              =   2.1067943825107E-02
(PID.TID 0000.0001) %MON dynstat_uvel_del2            =   5.2395424338728E-03
(PID.TID 0000.0001) %MON dynstat_vvel_max             =   1.4447396810697E-01
(PID.TID 0000.0001) %MON dynstat_vvel_min             =  -1.5048455812136E-01
(PID.TID 0000.0001) %MON dynstat_vvel_mean            =   2.3182388219668E-03
(PID.TID 0000.0001) %MON dynstat_vvel_sd              =   1.5995239327627E-02
(PID.TID 0000.0001) %MON dynstat_vvel_del2            =   5.2845740823895E-03
(PID.TID 0000.0001) %MON dynstat_wvel_max             =   3.9328218367956E-04
(PID.TID 0000.0001) %MON dynstat_wvel_min             =  -4.6349295312259E-04
(PID.TID 0000.0001) %MON dynstat_wvel_mean            =   1.2620055125650E-22
(PID.TID 0000.0001) %MON dynstat_wvel_sd              =   3.6165375599114E-05
(PID.TID 0000.0001) %MON dynstat_wvel_del2            =   1.4520926098256E-05
(PID.TID 0000.0001) %MON dynstat_theta_max            =   2.9462359186072E+01
(PID.TID 0000.0001) %MON dynstat_theta_min            =  -1.9307204121612E+00
(PID.TID 0000.0001) %MON dynstat_theta_mean           =   3.5932453872702E+00
(PID.TID 0000.0001) %MON dynstat_theta_sd             =   4.3428970352907E+00
(PID.TID 0000.0001) %MON dynstat_theta_del2           =   1.3481121004317E-01
(PID.TID 0000.0001) %MON dynstat_salt_max             =   3.7419116058254E+01
(PID.TID 0000.0001) %MON dynstat_salt_min             =   2.9800132740454E+01
(PID.TID 0000.0001) %MON dynstat_salt_mean            =   3.4716205534763E+01
(PID.TID 0000.0001) %MON dynstat_salt_sd              =   2.9504176555939E-01
(PID.TID 0000.0001) %MON dynstat_salt_del2            =   2.5222385530568E-02
(PID.TID 0000.0001) %MON advcfl_uvel_max              =   3.1482617409503E-02
(PID.TID 0000.0001) %MON advcfl_vvel_max              =   1.4618368080416E-02
(PID.TID 0000.0001) %MON advcfl_wvel_max              =   1.7731657837050E-01
(PID.TID 0000.0001) %MON advcfl_W_hf_max              =   1.5433994955449E-01
(PID.TID 0000.0001) %MON pe_b_mean                    =   1.9450007757858E-04
(PID.TID 0000.0001) %MON ke_max                       =   2.1959509475124E-02
(PID.TID 0000.0001) %MON ke_mean                      =   3.4757836304548E-04
(PID.TID 0000.0001) %MON ke_vol                       =   1.3226782436723E+18
(PID.TID 0000.0001) %MON vort_r_min                   =  -7.2335580343948E-07
(PID.TID 0000.0001) %MON vort_r_max                   =   6.5322092710285E-07
(PID.TID 0000.0001) %MON vort_a_mean                  =  -2.5205769041693E-05
(PID.TID 0000.0001) %MON vort_a_sd                    =   7.3401686882808E-05
(PID.TID 0000.0001) %MON vort_p_mean                  =  -3.1758669114278E-05
(PID.TID 0000.0001) %MON vort_p_sd                    =   1.3126012210015E-04
(PID.TID 0000.0001) %MON surfExpan_theta_mean         =   9.4955514994999E-06
(PID.TID 0000.0001) %MON surfExpan_salt_mean          =  -1.9813450103698E-06
(PID.TID 0000.0001) // =======================================================
(PID.TID 0000.0001) // End MONITOR dynamic field statistics
(PID.TID 0000.0001) // =======================================================
time,SST,SSS,fu,fv,Q,E-P,i0,i1,a,b =   1.0368E+06  7.7737E-01  3.4644E+01 -3.6606E-02 -5.8556E-02  2.6564E+02  0.0000E+00    12     1  9.0000E-01  1.0000E-01
time,fu0,fu1,fu =   1.0368E+06 -4.5368E-02 -3.5633E-02 -3.6606E-02  9.0000E-01  1.0000E-01
 cg2d: Sum(rhs),rhsMax =   7.37153393881584E-14  1.37323322818551E+01
(PID.TID 0000.0001)                    cg2d_init_res =    5.23673430827369E-01
(PID.TID 0000.0001)                       cg2d_iters =    25
(PID.TID 0000.0001)                         cg2d_res =    2.95860241871778E-14
(PID.TID 0000.0001) // =======================================================
(PID.TID 0000.0001) // Begin MONITOR dynamic field statistics
(PID.TID 0000.0001) // =======================================================
(PID.TID 0000.0001) %MON time_tsnumber                =                    25
(PID.TID 0000.0001) %MON time_secondsf                =   1.0800000000000E+06
(PID.TID 0000.0001) %MON dynstat_eta_max              =   1.6206954058684E+00
(PID.TID 0000.0001) %MON dynstat_eta_min              =  -1.1413636868103E+00
(PID.TID 0000.0001) %MON dynstat_eta_mean             =  -1.3582944106585E-16
(PID.TID 0000.0001) %MON dynstat_eta_sd               =   3.8838351298685E-01
(PID.TID 0000.0001) %MON dynstat_eta_del2             =   1.8609369932210E-02
(PID.TID 0000.0001) %MON dynstat_uvel_max             =   2.0883203563448E-01
(PID.TID 0000.0001) %MON dynstat_uvel_min             =  -2.0967224332405E-01
(PID.TID 0000.0001) %MON dynstat_uvel_mean            =  -7.4385663157223E-03
(PID.TID 0000.0001) %MON dynstat_uvel_sd              =   2.1193451268451E-02
(PID.TID 0000.0001) %MON dynstat_uvel_del2            =   5.2964267821498E-03
(PID.TID 0000.0001) %MON dynstat_vvel_max             =   1.4775321100882E-01
(PID.TID 0000.0001) %MON dynstat_vvel_min             =  -1.4919193624305E-01
(PID.TID 0000.0001) %MON dynstat_vvel_mean            =   2.3775904230344E-03
(PID.TID 0000.0001) %MON dynstat_vvel_sd              =   1.6072455929989E-02
(PID.TID 0000.0001) %MON dynstat_vvel_del2            =   5.3061391863629E-03
(PID.TID 0000.0001) %MON dynstat_wvel_max             =   4.0210226198830E-04
(PID.TID 0000.0001) %MON dynstat_wvel_min             =  -4.4488448694033E-04
(PID.TID 0000.0001) %MON dynstat_wvel_mean            =  -3.1093422576731E-22
(PID.TID 0000.0001) %MON dynstat_wvel_sd              =   3.5384656442062E-05
(PID.TID 0000.0001) %MON dynstat_wvel_del2            =   1.4199683628002E-05
(PID.TID 0000.0001) %MON dynstat_theta_max            =   2.9464237239693E+01
(PID.TID 0000.0001) %MON dynstat_theta_min            =  -1.9322978497715E+00
(PID.TID 0000.0001) %MON dynstat_theta_mean           =   3.5932824766119E+00
(PID.TID 0000.0001) %MON dynstat_theta_sd             =   4.3424412048231E+00
(PID.TID 0000.0001) %MON dynstat_theta_del2           =   1.3471626974374E-01
(PID.TID 0000.0001) %MON dynstat_salt_max             =   3.7418113630226E+01
(PID.TID 0000.0001) %MON dynstat_salt_min             =   2.9800230596692E+01
(PID.TID 0000.0001) %MON dynstat_salt_mean            =   3.4716233899210E+01
(PID.TID 0000.0001) %MON dynstat_salt_sd              =   2.9499567917659E-01
(PID.TID 0000.0001) %MON dynstat_salt_del2            =   2.5209762988192E-02
(PID.TID 0000.0001) %MON advcfl_uvel_max              =   3.1802366845209E-02
(PID.TID 0000.0001) %MON advcfl_vvel_max              =   1.4492800230519E-02
(PID.TID 0000.0001) %MON advcfl_wvel_max              =   1.8416253763228E-01
(PID.TID 0000.0001) %MON advcfl_W_hf_max              =   1.4682937652662E-01
(PID.TID 0000.0001) %MON pe_b_mean                    =   1.9302020455174E-04
(PID.TID 0000.0001) %MON ke_max                       =   2.2417568913490E-02
(PID.TID 0000.0001) %MON ke_mean                      =   3.4771029903470E-04
(PID.TID 0000.0001) %MON ke_vol                       =   1.3226782436723E+18
(PID.TID 0000.0001) %MON vort_r_min                   =  -7.3511384911850E-07
(PID.TID 0000.0001) %MON vort_r_max                   =   6.5969945089227E-07
(PID.TID 0000.0001) %MON vort_a_mean                  =  -2.5205769029988E-05
(PID.TID 0000.0001) %MON vort_a_sd                    =   7.3401782654486E-05
(PID.TID 0000.0001) %MON vort_p_mean                  =  -3.1758669099530E-05
(PID.TID 0000.0001) %MON vort_p_sd                    =   1.3126036666257E-04
(PID.TID 0000.0001) %MON surfExpan_theta_mean         =   3.8664247793661E-06
(PID.TID 0000.0001) %MON surfExpan_salt_mean          =  -2.3304503509698E-06
(PID.TID 0000.0001) // =======================================================
(PID.TID 0000.0001) // End MONITOR dynamic field statistics
(PID.TID 0000.0001) // =======================================================
time,SST,SSS,fu,fv,Q,E-P,i0,i1,a,b =   1.0800E+06  8.0755E-01  3.4656E+01 -3.6444E-02 -5.8339E-02  2.6566E+02  0.0000E+00    12     1  9.1667E-01  8.3333E-02
time,fu0,fu1,fu =   1.0800E+06 -4.5368E-02 -3.5633E-02 -3.6444E-02  9.1667E-01  8.3333E-02
 cg2d: Sum(rhs),rhsMax =   7.42305522605236E-14  1.39675819284063E+01
(PID.TID 0000.0001)                    cg2d_init_res =    5.08227431251879E-01
(PID.TID 0000.0001)                       cg2d_iters =    25
(PID.TID 0000.0001)                         cg2d_res =    2.81794941977664E-14
(PID.TID 0000.0001) // =======================================================
(PID.TID 0000.0001) // Begin MONITOR dynamic field statistics
(PID.TID 0000.0001) // =======================================================
(PID.TID 0000.0001) %MON time_tsnumber                =                    26
(PID.TID 0000.0001) %MON time_secondsf                =   1.1232000000000E+06
(PID.TID 0000.0001) %MON dynstat_eta_max              =   1.6463284431987E+00
(PID.TID 0000.0001) %MON dynstat_eta_min              =  -1.1206677450685E+00
(PID.TID 0000.0001) %MON dynstat_eta_mean             =   2.8666032131791E-17
(PID.TID 0000.0001) %MON dynstat_eta_sd               =   3.8666659427345E-01
(PID.TID 0000.0001) %MON dynstat_eta_del2             =   1.8470170393860E-02
(PID.TID 0000.0001) %MON dynstat_uvel_max             =   2.0815515596493E-01
(PID.TID 0000.0001) %MON dynstat_uvel_min             =  -2.1349129929462E-01
(PID.TID 0000.0001) %MON dynstat_uvel_mean            =  -6.9328149448040E-03
(PID.TID 0000.0001) %MON dynstat_uvel_sd              =   2.1251344416763E-02
(PID.TID 0000.0001) %MON dynstat_uvel_del2            =   5.3509103109363E-03
(PID.TID 0000.0001) %MON dynstat_vvel_max             =   1.5049912710225E-01
(PID.TID 0000.0001) %MON dynstat_vvel_min             =  -1.4552409862454E-01
(PID.TID 0000.0001) %MON dynstat_vvel_mean            =   2.4778898185992E-03
(PID.TID 0000.0001) %MON dynstat_vvel_sd              =   1.6151929328484E-02
(PID.TID 0000.0001) %MON dynstat_vvel_del2            =   5.3184970779868E-03
(PID.TID 0000.0001) %MON dynstat_wvel_max             =   4.0802413430162E-04
(PID.TID 0000.0001) %MON dynstat_wvel_min             =  -4.2357649893459E-04
(PID.TID 0000.0001) %MON dynstat_wvel_mean            =   7.6860690049558E-22
(PID.TID 0000.0001) %MON dynstat_wvel_sd              =   3.4658047873813E-05
(PID.TID 0000.0001) %MON dynstat_wvel_del2            =   1.3887631303619E-05
(PID.TID 0000.0001) %MON dynstat_theta_max            =   2.9465724824260E+01
(PID.TID 0000.0001) %MON dynstat_theta_min            =  -1.9341599464375E+00
(PID.TID 0000.0001) %MON dynstat_theta_mean           =   3.5933598038241E+00
(PID.TID 0000.0001) %MON dynstat_theta_sd             =   4.3422426831743E+00
(PID.TID 0000.0001) %MON dynstat_theta_del2           =   1.3463338753232E-01
(PID.TID 0000.0001) %MON dynstat_salt_max             =   3.7417117798704E+01
(PID.TID 0000.0001) %MON dynstat_salt_min             =   2.9800388647919E+01
(PID.TID 0000.0001) %MON dynstat_salt_mean            =   3.4716263528144E+01
(PID.TID 0000.0001) %MON dynstat_salt_sd              =   2.9494817735160E-01
(PID.TID 0000.0001) %MON dynstat_salt_del2            =   2.5195485048801E-02
(PID.TID 0000.0001) %MON advcfl_uvel_max              =   3.1978595685989E-02
(PID.TID 0000.0001) %MON advcfl_vvel_max              =   1.4619783340080E-02
(PID.TID 0000.0001) %MON advcfl_wvel_max              =   1.8404550446148E-01
(PID.TID 0000.0001) %MON advcfl_W_hf_max              =   1.3949092012451E-01
(PID.TID 0000.0001) %MON pe_b_mean                    =   1.9131741602574E-04
(PID.TID 0000.0001) %MON ke_max                       =   2.2769619117469E-02
(PID.TID 0000.0001) %MON ke_mean                      =   3.4689292452875E-04
(PID.TID 0000.0001) %MON ke_vol                       =   1.3226782436723E+18
(PID.TID 0000.0001) %MON vort_r_min                   =  -7.4277714846448E-07
(PID.TID 0000.0001) %MON vort_r_max                   =   6.6110125276709E-07
(PID.TID 0000.0001) %MON vort_a_mean                  =  -2.5205769031339E-05
(PID.TID 0000.0001) %MON vort_a_sd                    =   7.3401881074918E-05
(PID.TID 0000.0001) %MON vort_p_mean                  =  -3.1758669101232E-05
(PID.TID 0000.0001) %MON vort_p_sd                    =   1.3126060843274E-04
(PID.TID 0000.0001) %MON surfExpan_theta_mean         =  -4.5300636569870E-07
(PID.TID 0000.0001) %MON surfExpan_salt_mean          =  -2.5343640430829E-06
(PID.TID 0000.0001) // =======================================================
(PID.TID 0000.0001) // End MONITOR dynamic field statistics
(PID.TID 0000.0001) // =======================================================
time,SST,SSS,fu,fv,Q,E-P,i0,i1,a,b =   1.1232E+06  8.3772E-01  3.4668E+01 -3.6282E-02 -5.8123E-02  2.6568E+02  0.0000E+00    12     1  9.3333E-01  6.6667E-02
time,fu0,fu1,fu =   1.1232E+06 -4.5368E-02 -3.5633E-02 -3.6282E-02  9.3333E-01  6.6667E-02
 cg2d: Sum(rhs),rhsMax =   6.98122115672106E-14  1.39838979558586E+01
(PID.TID 0000.0001)                    cg2d_init_res =    5.04783513738762E-01
(PID.TID 0000.0001)                       cg2d_iters =    25
(PID.TID 0000.0001)                         cg2d_res =    2.64033599927629E-14
(PID.TID 0000.0001) // =======================================================
(PID.TID 0000.0001) // Begin MONITOR dynamic field statistics
(PID.TID 0000.0001) // =======================================================
(PID.TID 0000.0001) %MON time_tsnumber                =                    27
(PID.TID 0000.0001) %MON time_secondsf                =   1.1664000000000E+06
(PID.TID 0000.0001) %MON dynstat_eta_max              =   1.6465067281814E+00
(PID.TID 0000.0001) %MON dynstat_eta_min              =  -1.0883651001317E+00
(PID.TID 0000.0001) %MON dynstat_eta_mean             =   1.4375248200168E-16
(PID.TID 0000.0001) %MON dynstat_eta_sd               =   3.8488864743667E-01
(PID.TID 0000.0001) %MON dynstat_eta_del2             =   1.8405054735325E-02
(PID.TID 0000.0001) %MON dynstat_uvel_max             =   2.0617640733007E-01
(PID.TID 0000.0001) %MON dynstat_uvel_min             =  -2.1339074537680E-01
(PID.TID 0000.0001) %MON dynstat_uvel_mean            =  -6.4354727999570E-03
(PID.TID 0000.0001) %MON dynstat_uvel_sd              =   2.1243524022903E-02
(PID.TID 0000.0001) %MON dynstat_uvel_del2            =   5.4055611943718E-03
(PID.TID 0000.0001) %MON dynstat_vvel_max             =   1.5274790929155E-01
(PID.TID 0000.0001) %MON dynstat_vvel_min             =  -1.5198853466136E-01
(PID.TID 0000.0001) %MON dynstat_vvel_mean            =   2.6107465178158E-03
(PID.TID 0000.0001) %MON dynstat_vvel_sd              =   1.6233872830701E-02
(PID.TID 0000.0001) %MON dynstat_vvel_del2            =   5.3256378992625E-03
(PID.TID 0000.0001) %MON dynstat_wvel_max             =   4.1112432998780E-04
(PID.TID 0000.0001) %MON dynstat_wvel_min             =  -4.0014498954649E-04
(PID.TID 0000.0001) %MON dynstat_wvel_mean            =   5.4888863955837E-22
(PID.TID 0000.0001) %MON dynstat_wvel_sd              =   3.4007572573639E-05
(PID.TID 0000.0001) %MON dynstat_wvel_del2            =   1.3591120271817E-05
(PID.TID 0000.0001) %MON dynstat_theta_max            =   2.9466748056318E+01
(PID.TID 0000.0001) %MON dynstat_theta_min            =  -1.9361456347415E+00
(PID.TID 0000.0001) %MON dynstat_theta_mean           =   3.5934636726081E+00
(PID.TID 0000.0001) %MON dynstat_theta_sd             =   4.3422685423583E+00
(PID.TID 0000.0001) %MON dynstat_theta_del2           =   1.3458411429449E-01
(PID.TID 0000.0001) %MON dynstat_salt_max             =   3.7416127650906E+01
(PID.TID 0000.0001) %MON dynstat_salt_min             =   2.9800617235652E+01
(PID.TID 0000.0001) %MON dynstat_salt_mean            =   3.4716292831842E+01
(PID.TID 0000.0001) %MON dynstat_salt_sd              =   2.9489921070770E-01
(PID.TID 0000.0001) %MON dynstat_salt_del2            =   2.5181936816858E-02
(PID.TID 0000.0001) %MON advcfl_uvel_max              =   3.2537600310124E-02
(PID.TID 0000.0001) %MON advcfl_vvel_max              =   1.4838234496705E-02
(PID.TID 0000.0001) %MON advcfl_wvel_max              =   1.7681962937046E-01
(PID.TID 0000.0001) %MON advcfl_W_hf_max              =   1.3360308137429E-01
(PID.TID 0000.0001) %MON pe_b_mean                    =   1.8956205279502E-04
(PID.TID 0000.0001) %MON ke_max                       =   2.3008258204582E-02
(PID.TID 0000.0001) %MON ke_mean                      =   3.4521630068151E-04
(PID.TID 0000.0001) %MON ke_vol                       =   1.3226782436723E+18
(PID.TID 0000.0001) %MON vort_r_min                   =  -7.4637696938460E-07
(PID.TID 0000.0001) %MON vort_r_max                   =   6.5774105082930E-07
(PID.TID 0000.0001) %MON vort_a_mean                  =  -2.5205769044021E-05
(PID.TID 0000.0001) %MON vort_a_sd                    =   7.3401980011715E-05
(PID.TID 0000.0001) %MON vort_p_mean                  =  -3.1758669117211E-05
(PID.TID 0000.0001) %MON vort_p_sd                    =   1.3126084284841E-04
(PID.TID 0000.0001) %MON surfExpan_theta_mean         =  -3.5234549362475E-06
(PID.TID 0000.0001) %MON surfExpan_salt_mean          =  -2.5948622362402E-06
(PID.TID 0000.0001) // =======================================================
(PID.TID 0000.0001) // End MONITOR dynamic field statistics
(PID.TID 0000.0001) // =======================================================
time,SST,SSS,fu,fv,Q,E-P,i0,i1,a,b =   1.1664E+06  8.6790E-01  3.4679E+01 -3.6120E-02 -5.7906E-02  2.6570E+02  0.0000E+00    12     1  9.5000E-01  5.0000E-02
time,fu0,fu1,fu =   1.1664E+06 -4.5368E-02 -3.5633E-02 -3.6120E-02  9.5000E-01  5.0000E-02
 cg2d: Sum(rhs),rhsMax =  -4.33438007707565E-14  1.37769726896448E+01
(PID.TID 0000.0001)                    cg2d_init_res =    5.13229985197562E-01
(PID.TID 0000.0001)                       cg2d_iters =    25
(PID.TID 0000.0001)                         cg2d_res =    2.48009222932937E-14
(PID.TID 0000.0001) // =======================================================
(PID.TID 0000.0001) // Begin MONITOR dynamic field statistics
(PID.TID 0000.0001) // =======================================================
(PID.TID 0000.0001) %MON time_tsnumber                =                    28
(PID.TID 0000.0001) %MON time_secondsf                =   1.2096000000000E+06
(PID.TID 0000.0001) %MON dynstat_eta_max              =   1.6207762372700E+00
(PID.TID 0000.0001) %MON dynstat_eta_min              =  -1.0716304386229E+00
(PID.TID 0000.0001) %MON dynstat_eta_mean             =  -1.2404170787942E-16
(PID.TID 0000.0001) %MON dynstat_eta_sd               =   3.8321745646138E-01
(PID.TID 0000.0001) %MON dynstat_eta_del2             =   1.8434666129913E-02
(PID.TID 0000.0001) %MON dynstat_uvel_max             =   2.0288551318238E-01
(PID.TID 0000.0001) %MON dynstat_uvel_min             =  -2.0932104397371E-01
(PID.TID 0000.0001) %MON dynstat_uvel_mean            =  -5.9561176661151E-03
(PID.TID 0000.0001) %MON dynstat_uvel_sd              =   2.1172759668758E-02
(PID.TID 0000.0001) %MON dynstat_uvel_del2            =   5.4576902797439E-03
(PID.TID 0000.0001) %MON dynstat_vvel_max             =   1.5452798913589E-01
(PID.TID 0000.0001) %MON dynstat_vvel_min             =  -1.5624929106726E-01
(PID.TID 0000.0001) %MON dynstat_vvel_mean            =   2.7670125391407E-03
(PID.TID 0000.0001) %MON dynstat_vvel_sd              =   1.6316972358685E-02
(PID.TID 0000.0001) %MON dynstat_vvel_del2            =   5.3297258513257E-03
(PID.TID 0000.0001) %MON dynstat_wvel_max             =   4.1150469527164E-04
(PID.TID 0000.0001) %MON dynstat_wvel_min             =  -3.8130180671929E-04
(PID.TID 0000.0001) %MON dynstat_wvel_mean            =   3.6001786317819E-22
(PID.TID 0000.0001) %MON dynstat_wvel_sd              =   3.3447600295725E-05
(PID.TID 0000.0001) %MON dynstat_wvel_del2            =   1.3318697271585E-05
(PID.TID 0000.0001) %MON dynstat_theta_max            =   2.9467326687617E+01
(PID.TID 0000.0001) %MON dynstat_theta_min            =  -1.9381039308913E+00
(PID.TID 0000.0001) %MON dynstat_theta_mean           =   3.5935817839304E+00
(PID.TID 0000.0001) %MON dynstat_theta_sd             =   4.3424824334258E+00
(PID.TID 0000.0001) %MON dynstat_theta_del2           =   1.3453426903270E-01
(PID.TID 0000.0001) %MON dynstat_salt_max             =   3.7415140317190E+01
(PID.TID 0000.0001) %MON dynstat_salt_min             =   2.9800920878196E+01
(PID.TID 0000.0001) %MON dynstat_salt_mean            =   3.4716320334253E+01
(PID.TID 0000.0001) %MON dynstat_salt_sd              =   2.9484822228705E-01
(PID.TID 0000.0001) %MON dynstat_salt_del2            =   2.5166223319253E-02
(PID.TID 0000.0001) %MON advcfl_uvel_max              =   3.2975306531784E-02
(PID.TID 0000.0001) %MON advcfl_vvel_max              =   1.5178365658509E-02
(PID.TID 0000.0001) %MON advcfl_wvel_max              =   1.6269552790805E-01
(PID.TID 0000.0001) %MON advcfl_W_hf_max              =   1.2241617354960E-01
(PID.TID 0000.0001) %MON pe_b_mean                    =   1.8791946535301E-04
(PID.TID 0000.0001) %MON ke_max                       =   2.3247892116885E-02
(PID.TID 0000.0001) %MON ke_mean                      =   3.4274567672761E-04
(PID.TID 0000.0001) %MON ke_vol                       =   1.3226782436723E+18
(PID.TID 0000.0001) %MON vort_r_min                   =  -7.4599696075099E-07
(PID.TID 0000.0001) %MON vort_r_max                   =   6.5008180005124E-07
(PID.TID 0000.0001) %MON vort_a_mean                  =  -2.5205769065622E-05
(PID.TID 0000.0001) %MON vort_a_sd                    =   7.3402077564143E-05
(PID.TID 0000.0001) %MON vort_p_mean                  =  -3.1758669144428E-05
(PID.TID 0000.0001) %MON vort_p_sd                    =   1.3126106695663E-04
(PID.TID 0000.0001) %MON surfExpan_theta_mean         =  -5.4497101531602E-06
(PID.TID 0000.0001) %MON surfExpan_salt_mean          =  -2.5197570475741E-06
(PID.TID 0000.0001) // =======================================================
(PID.TID 0000.0001) // End MONITOR dynamic field statistics
(PID.TID 0000.0001) // =======================================================
time,SST,SSS,fu,fv,Q,E-P,i0,i1,a,b =   1.2096E+06  8.9807E-01  3.4691E+01 -3.5957E-02 -5.7690E-02  2.6573E+02  0.0000E+00    12     1  9.6667E-01  3.3333E-02
time,fu0,fu1,fu =   1.2096E+06 -4.5368E-02 -3.5633E-02 -3.5957E-02  9.6667E-01  3.3333E-02
 cg2d: Sum(rhs),rhsMax =  -5.36272415363470E-14  1.33499348746163E+01
(PID.TID 0000.0001)                    cg2d_init_res =    5.33178261342898E-01
(PID.TID 0000.0001)                       cg2d_iters =    25
(PID.TID 0000.0001)                         cg2d_res =    2.27729864058184E-14
(PID.TID 0000.0001) // =======================================================
(PID.TID 0000.0001) // Begin MONITOR dynamic field statistics
(PID.TID 0000.0001) // =======================================================
(PID.TID 0000.0001) %MON time_tsnumber                =                    29
(PID.TID 0000.0001) %MON time_secondsf                =   1.2528000000000E+06
(PID.TID 0000.0001) %MON dynstat_eta_max              =   1.5695414855579E+00
(PID.TID 0000.0001) %MON dynstat_eta_min              =  -1.0437245750605E+00
(PID.TID 0000.0001) %MON dynstat_eta_mean             =   1.1212840401289E-16
(PID.TID 0000.0001) %MON dynstat_eta_sd               =   3.8181575234851E-01
(PID.TID 0000.0001) %MON dynstat_eta_del2             =   1.8569577659202E-02
(PID.TID 0000.0001) %MON dynstat_uvel_max             =   2.0085688595121E-01
(PID.TID 0000.0001) %MON dynstat_uvel_min             =  -2.0138156960588E-01
(PID.TID 0000.0001) %MON dynstat_uvel_mean            =  -5.5026681248551E-03
(PID.TID 0000.0001) %MON dynstat_uvel_sd              =   2.1042919409922E-02
(PID.TID 0000.0001) %MON dynstat_uvel_del2            =   5.5071492941096E-03
(PID.TID 0000.0001) %MON dynstat_vvel_max             =   1.5586027397673E-01
(PID.TID 0000.0001) %MON dynstat_vvel_min             =  -1.5680971858608E-01
(PID.TID 0000.0001) %MON dynstat_vvel_mean            =   2.9372201510491E-03
(PID.TID 0000.0001) %MON dynstat_vvel_sd              =   1.6398017484564E-02
(PID.TID 0000.0001) %MON dynstat_vvel_del2            =   5.3286010543929E-03
(PID.TID 0000.0001) %MON dynstat_wvel_max             =   4.0927791003288E-04
(PID.TID 0000.0001) %MON dynstat_wvel_min             =  -3.8286251892739E-04
(PID.TID 0000.0001) %MON dynstat_wvel_mean            =   9.9399684200014E-22
(PID.TID 0000.0001) %MON dynstat_wvel_sd              =   3.2982511689289E-05
(PID.TID 0000.0001) %MON dynstat_wvel_del2            =   1.3080993484485E-05
(PID.TID 0000.0001) %MON dynstat_theta_max            =   2.9467594229733E+01
(PID.TID 0000.0001) %MON dynstat_theta_min            =  -1.9399036696762E+00
(PID.TID 0000.0001) %MON dynstat_theta_mean           =   3.5937035145403E+00
(PID.TID 0000.0001) %MON dynstat_theta_sd             =   4.3428473144264E+00
(PID.TID 0000.0001) %MON dynstat_theta_del2           =   1.3451323841964E-01
(PID.TID 0000.0001) %MON dynstat_salt_max             =   3.7414149526651E+01
(PID.TID 0000.0001) %MON dynstat_salt_min             =   2.9801298581780E+01
(PID.TID 0000.0001) %MON dynstat_salt_mean            =   3.4716344742138E+01
(PID.TID 0000.0001) %MON dynstat_salt_sd              =   2.9479461358473E-01
(PID.TID 0000.0001) %MON dynstat_salt_del2            =   2.5158647966905E-02
(PID.TID 0000.0001) %MON advcfl_uvel_max              =   3.3297472179485E-02
(PID.TID 0000.0001) %MON advcfl_vvel_max              =   1.5232806697874E-02
(PID.TID 0000.0001) %MON advcfl_wvel_max              =   1.4916691466126E-01
(PID.TID 0000.0001) %MON advcfl_W_hf_max              =   1.0851048943083E-01
(PID.TID 0000.0001) %MON pe_b_mean                    =   1.8654726402476E-04
(PID.TID 0000.0001) %MON ke_max                       =   2.3661899816931E-02
(PID.TID 0000.0001) %MON ke_mean                      =   3.3952103546229E-04
(PID.TID 0000.0001) %MON ke_vol                       =   1.3226782436723E+18
(PID.TID 0000.0001) %MON vort_r_min                   =  -7.4176954424553E-07
(PID.TID 0000.0001) %MON vort_r_max                   =   6.3869069670610E-07
(PID.TID 0000.0001) %MON vort_a_mean                  =  -2.5205769093297E-05
(PID.TID 0000.0001) %MON vort_a_sd                    =   7.3402172078933E-05
(PID.TID 0000.0001) %MON vort_p_mean                  =  -3.1758669179297E-05
(PID.TID 0000.0001) %MON vort_p_sd                    =   1.3126127903072E-04
(PID.TID 0000.0001) %MON surfExpan_theta_mean         =  -6.3617539088970E-06
(PID.TID 0000.0001) %MON surfExpan_salt_mean          =  -2.3219127883221E-06
(PID.TID 0000.0001) // =======================================================
(PID.TID 0000.0001) // End MONITOR dynamic field statistics
(PID.TID 0000.0001) // =======================================================
time,SST,SSS,fu,fv,Q,E-P,i0,i1,a,b =   1.2528E+06  9.2825E-01  3.4703E+01 -3.5795E-02 -5.7473E-02  2.6575E+02  0.0000E+00    12     1  9.8333E-01  1.6667E-02
time,fu0,fu1,fu =   1.2528E+06 -4.5368E-02 -3.5633E-02 -3.5795E-02  9.8333E-01  1.6667E-02
 cg2d: Sum(rhs),rhsMax =   1.08833081435833E-13  1.27132009593708E+01
(PID.TID 0000.0001)                    cg2d_init_res =    5.64189979982872E-01
(PID.TID 0000.0001)                       cg2d_iters =    24
(PID.TID 0000.0001)                         cg2d_res =    9.36737497969437E-14
(PID.TID 0000.0001) // =======================================================
(PID.TID 0000.0001) // Begin MONITOR dynamic field statistics
(PID.TID 0000.0001) // =======================================================
(PID.TID 0000.0001) %MON time_tsnumber                =                    30
(PID.TID 0000.0001) %MON time_secondsf                =   1.2960000000000E+06
(PID.TID 0000.0001) %MON dynstat_eta_max              =   1.4940497976007E+00
(PID.TID 0000.0001) %MON dynstat_eta_min              =  -1.0072652128395E+00
(PID.TID 0000.0001) %MON dynstat_eta_mean             =   2.3121159442611E-17
(PID.TID 0000.0001) %MON dynstat_eta_sd               =   3.8083179007889E-01
(PID.TID 0000.0001) %MON dynstat_eta_del2             =   1.8748225711466E-02
(PID.TID 0000.0001) %MON dynstat_uvel_max             =   2.0053636076129E-01
(PID.TID 0000.0001) %MON dynstat_uvel_min             =  -1.9628260016725E-01
(PID.TID 0000.0001) %MON dynstat_uvel_mean            =  -5.0813543173795E-03
(PID.TID 0000.0001) %MON dynstat_uvel_sd              =   2.0859112473932E-02
(PID.TID 0000.0001) %MON dynstat_uvel_del2            =   5.5509654911388E-03
(PID.TID 0000.0001) %MON dynstat_vvel_max             =   1.5676103375858E-01
(PID.TID 0000.0001) %MON dynstat_vvel_min             =  -1.5375089504151E-01
(PID.TID 0000.0001) %MON dynstat_vvel_mean            =   3.1119677071729E-03
(PID.TID 0000.0001) %MON dynstat_vvel_sd              =   1.6472159914490E-02
(PID.TID 0000.0001) %MON dynstat_vvel_del2            =   5.3233678813381E-03
(PID.TID 0000.0001) %MON dynstat_wvel_max             =   4.0456017858156E-04
(PID.TID 0000.0001) %MON dynstat_wvel_min             =  -3.8294699195972E-04
(PID.TID 0000.0001) %MON dynstat_wvel_mean            =  -4.3381351507018E-22
(PID.TID 0000.0001) %MON dynstat_wvel_sd              =   3.2606679336446E-05
(PID.TID 0000.0001) %MON dynstat_wvel_del2            =   1.2890106641379E-05
(PID.TID 0000.0001) %MON dynstat_theta_max            =   2.9467802277985E+01
(PID.TID 0000.0001) %MON dynstat_theta_min            =  -1.9414390833406E+00
(PID.TID 0000.0001) %MON dynstat_theta_mean           =   3.5938200273567E+00
(PID.TID 0000.0001) %MON dynstat_theta_sd             =   4.3433283420194E+00
(PID.TID 0000.0001) %MON dynstat_theta_del2           =   1.3445010480140E-01
(PID.TID 0000.0001) %MON dynstat_salt_max             =   3.7413145850162E+01
(PID.TID 0000.0001) %MON dynstat_salt_min             =   2.9801744376518E+01
(PID.TID 0000.0001) %MON dynstat_salt_mean            =   3.4716364986329E+01
(PID.TID 0000.0001) %MON dynstat_salt_sd              =   2.9473929272243E-01
(PID.TID 0000.0001) %MON dynstat_salt_del2            =   2.5138892840736E-02
(PID.TID 0000.0001) %MON advcfl_uvel_max              =   3.3511190066710E-02
(PID.TID 0000.0001) %MON advcfl_vvel_max              =   1.5228077357288E-02
(PID.TID 0000.0001) %MON advcfl_wvel_max              =   1.4929202525963E-01
(PID.TID 0000.0001) %MON advcfl_W_hf_max              =   1.0895871974281E-01
(PID.TID 0000.0001) %MON pe_b_mean                    =   1.8558701578249E-04
(PID.TID 0000.0001) %MON ke_max                       =   2.4046245632707E-02
(PID.TID 0000.0001) %MON ke_mean                      =   3.3556475296109E-04
(PID.TID 0000.0001) %MON ke_vol                       =   1.3226782436723E+18
(PID.TID 0000.0001) %MON vort_r_min                   =  -7.4539942976685E-07
(PID.TID 0000.0001) %MON vort_r_max                   =   6.3202724237377E-07
(PID.TID 0000.0001) %MON vort_a_mean                  =  -2.5205769124029E-05
(PID.TID 0000.0001) %MON vort_a_sd                    =   7.3402262161802E-05
(PID.TID 0000.0001) %MON vort_p_mean                  =  -3.1758669218019E-05
(PID.TID 0000.0001) %MON vort_p_sd                    =   1.3126147821700E-04
(PID.TID 0000.0001) %MON surfExpan_theta_mean         =  -6.4003929467083E-06
(PID.TID 0000.0001) %MON surfExpan_salt_mean          =  -2.0171594009254E-06
(PID.TID 0000.0001) // =======================================================
(PID.TID 0000.0001) // End MONITOR dynamic field statistics
(PID.TID 0000.0001) // =======================================================
 S/R EXTERNAL_FIELDS_LOAD: Reading new data  1296000. 30
(PID.TID 0000.0001)  MDSREADFIELD: opening global file: trenberth_taux.bin
(PID.TID 0000.0001)  MDSREADFIELD: opening global file: trenberth_taux.bin
(PID.TID 0000.0001)  MDSREADFIELD: opening global file: trenberth_tauy.bin
(PID.TID 0000.0001)  MDSREADFIELD: opening global file: trenberth_tauy.bin
(PID.TID 0000.0001)  MDSREADFIELD: opening global file: ncep_qnet.bin
(PID.TID 0000.0001)  MDSREADFIELD: opening global file: ncep_qnet.bin
(PID.TID 0000.0001)  MDSREADFIELD: opening global file: lev_sst.bin
(PID.TID 0000.0001)  MDSREADFIELD: opening global file: lev_sst.bin
(PID.TID 0000.0001)  MDSREADFIELD: opening global file: lev_sss.bin
(PID.TID 0000.0001)  MDSREADFIELD: opening global file: lev_sss.bin
time,SST,SSS,fu,fv,Q,E-P,i0,i1,a,b =   1.2960E+06  9.5843E-01  3.4715E+01 -3.5633E-02 -5.7257E-02  2.6577E+02  0.0000E+00     1     2  0.0000E+00  1.0000E+00
time,fu0,fu1,fu =   1.2960E+06 -3.5633E-02 -1.4435E-02 -3.5633E-02  0.0000E+00  1.0000E+00
 cg2d: Sum(rhs),rhsMax =   3.28643362523806E-13  1.18840510745018E+01
(PID.TID 0000.0001)                    cg2d_init_res =    6.06247039574858E-01
(PID.TID 0000.0001)                       cg2d_iters =    24
(PID.TID 0000.0001)                         cg2d_res =    8.38526489407900E-14
(PID.TID 0000.0001) // =======================================================
(PID.TID 0000.0001) // Begin MONITOR dynamic field statistics
(PID.TID 0000.0001) // =======================================================
(PID.TID 0000.0001) %MON time_tsnumber                =                    31
(PID.TID 0000.0001) %MON time_secondsf                =   1.3392000000000E+06
(PID.TID 0000.0001) %MON dynstat_eta_max              =   1.3963430480066E+00
(PID.TID 0000.0001) %MON dynstat_eta_min              =  -1.0227279752839E+00
(PID.TID 0000.0001) %MON dynstat_eta_mean             =   2.7289325254047E-17
(PID.TID 0000.0001) %MON dynstat_eta_sd               =   3.8038545728685E-01
(PID.TID 0000.0001) %MON dynstat_eta_del2             =   1.8860414068534E-02
(PID.TID 0000.0001) %MON dynstat_uvel_max             =   1.9899663151548E-01
(PID.TID 0000.0001) %MON dynstat_uvel_min             =  -1.9763373116983E-01
(PID.TID 0000.0001) %MON dynstat_uvel_mean            =  -4.6967236728734E-03
(PID.TID 0000.0001) %MON dynstat_uvel_sd              =   2.0627744024268E-02
(PID.TID 0000.0001) %MON dynstat_uvel_del2            =   5.5905325194132E-03
(PID.TID 0000.0001) %MON dynstat_vvel_max             =   1.5724576876821E-01
(PID.TID 0000.0001) %MON dynstat_vvel_min             =  -1.5016750050669E-01
(PID.TID 0000.0001) %MON dynstat_vvel_mean            =   3.2822723481919E-03
(PID.TID 0000.0001) %MON dynstat_vvel_sd              =   1.6533654658327E-02
(PID.TID 0000.0001) %MON dynstat_vvel_del2            =   5.3145683442426E-03
(PID.TID 0000.0001) %MON dynstat_wvel_max             =   3.9746869275440E-04
(PID.TID 0000.0001) %MON dynstat_wvel_min             =  -3.8146983319400E-04
(PID.TID 0000.0001) %MON dynstat_wvel_mean            =   1.3134077391292E-22
(PID.TID 0000.0001) %MON dynstat_wvel_sd              =   3.2306617054094E-05
(PID.TID 0000.0001) %MON dynstat_wvel_del2            =   1.2740827674251E-05
(PID.TID 0000.0001) %MON dynstat_theta_max            =   2.9478435653541E+01
(PID.TID 0000.0001) %MON dynstat_theta_min            =  -1.9426309932911E+00
(PID.TID 0000.0001) %MON dynstat_theta_mean           =   3.5939243519085E+00
(PID.TID 0000.0001) %MON dynstat_theta_sd             =   4.3438876311277E+00
(PID.TID 0000.0001) %MON dynstat_theta_del2           =   1.3436833591801E-01
(PID.TID 0000.0001) %MON dynstat_salt_max             =   3.7412116938815E+01
(PID.TID 0000.0001) %MON dynstat_salt_min             =   2.9802248043314E+01
(PID.TID 0000.0001) %MON dynstat_salt_mean            =   3.4716380246820E+01
(PID.TID 0000.0001) %MON dynstat_salt_sd              =   2.9468029912655E-01
(PID.TID 0000.0001) %MON dynstat_salt_del2            =   2.5126433121611E-02
(PID.TID 0000.0001) %MON advcfl_uvel_max              =   3.3624495933087E-02
(PID.TID 0000.0001) %MON advcfl_vvel_max              =   1.5275165476366E-02
(PID.TID 0000.0001) %MON advcfl_wvel_max              =   1.5530141646817E-01
(PID.TID 0000.0001) %MON advcfl_W_hf_max              =   1.1373106053512E-01
(PID.TID 0000.0001) %MON pe_b_mean                    =   1.8515225674803E-04
(PID.TID 0000.0001) %MON ke_max                       =   2.4265227920285E-02
(PID.TID 0000.0001) %MON ke_mean                      =   3.3089533996314E-04
(PID.TID 0000.0001) %MON ke_vol                       =   1.3226782436723E+18
(PID.TID 0000.0001) %MON vort_r_min                   =  -7.5103953035627E-07
(PID.TID 0000.0001) %MON vort_r_max                   =   6.2899413116458E-07
(PID.TID 0000.0001) %MON vort_a_mean                  =  -2.5205769154847E-05
(PID.TID 0000.0001) %MON vort_a_sd                    =   7.3402346685130E-05
(PID.TID 0000.0001) %MON vort_p_mean                  =  -3.1758669256849E-05
(PID.TID 0000.0001) %MON vort_p_sd                    =   1.3126166415506E-04
(PID.TID 0000.0001) %MON surfExpan_theta_mean         =  -5.7298019043129E-06
(PID.TID 0000.0001) %MON surfExpan_salt_mean          =  -1.6280480526816E-06
(PID.TID 0000.0001) // =======================================================
(PID.TID 0000.0001) // End MONITOR dynamic field statistics
(PID.TID 0000.0001) // =======================================================
time,SST,SSS,fu,fv,Q,E-P,i0,i1,a,b =   1.3392E+06  9.3359E-01  3.4710E+01 -3.5280E-02 -5.6596E-02  2.6535E+02  0.0000E+00     1     2  1.6667E-02  9.8333E-01
time,fu0,fu1,fu =   1.3392E+06 -3.5633E-02 -1.4435E-02 -3.5280E-02  1.6667E-02  9.8333E-01
 cg2d: Sum(rhs),rhsMax =  -4.66786331809743E-13  1.08860124057610E+01
(PID.TID 0000.0001)                    cg2d_init_res =    6.60365282520181E-01
(PID.TID 0000.0001)                       cg2d_iters =    24
(PID.TID 0000.0001)                         cg2d_res =    6.71487584210594E-14
(PID.TID 0000.0001) // =======================================================
(PID.TID 0000.0001) // Begin MONITOR dynamic field statistics
(PID.TID 0000.0001) // =======================================================
(PID.TID 0000.0001) %MON time_tsnumber                =                    32
(PID.TID 0000.0001) %MON time_secondsf                =   1.3824000000000E+06
(PID.TID 0000.0001) %MON dynstat_eta_max              =   1.2791861149083E+00
(PID.TID 0000.0001) %MON dynstat_eta_min              =  -1.0353471924597E+00
(PID.TID 0000.0001) %MON dynstat_eta_mean             =  -1.0981131878969E-16
(PID.TID 0000.0001) %MON dynstat_eta_sd               =   3.8055395497297E-01
(PID.TID 0000.0001) %MON dynstat_eta_del2             =   1.8925314593402E-02
(PID.TID 0000.0001) %MON dynstat_uvel_max             =   2.0044650995747E-01
(PID.TID 0000.0001) %MON dynstat_uvel_min             =  -1.9842985625329E-01
(PID.TID 0000.0001) %MON dynstat_uvel_mean            =  -4.3516603426732E-03
(PID.TID 0000.0001) %MON dynstat_uvel_sd              =   2.0356270440506E-02
(PID.TID 0000.0001) %MON dynstat_uvel_del2            =   5.6255441917061E-03
(PID.TID 0000.0001) %MON dynstat_vvel_max             =   1.6191516584593E-01
(PID.TID 0000.0001) %MON dynstat_vvel_min             =  -1.5272444633282E-01
(PID.TID 0000.0001) %MON dynstat_vvel_mean            =   3.4397948798407E-03
(PID.TID 0000.0001) %MON dynstat_vvel_sd              =   1.6576922407210E-02
(PID.TID 0000.0001) %MON dynstat_vvel_del2            =   5.3030328788183E-03
(PID.TID 0000.0001) %MON dynstat_wvel_max             =   3.8812766658348E-04
(PID.TID 0000.0001) %MON dynstat_wvel_min             =  -3.7838362986227E-04
(PID.TID 0000.0001) %MON dynstat_wvel_mean            =  -8.8373779933727E-22
(PID.TID 0000.0001) %MON dynstat_wvel_sd              =   3.2065036510065E-05
(PID.TID 0000.0001) %MON dynstat_wvel_del2            =   1.2632347094382E-05
(PID.TID 0000.0001) %MON dynstat_theta_max            =   2.9493556533713E+01
(PID.TID 0000.0001) %MON dynstat_theta_min            =  -1.9434246916240E+00
(PID.TID 0000.0001) %MON dynstat_theta_mean           =   3.5940108997632E+00
(PID.TID 0000.0001) %MON dynstat_theta_sd             =   4.3444932120469E+00
(PID.TID 0000.0001) %MON dynstat_theta_del2           =   1.3431212901484E-01
(PID.TID 0000.0001) %MON dynstat_salt_max             =   3.7411008972568E+01
(PID.TID 0000.0001) %MON dynstat_salt_min             =   2.9802776370019E+01
(PID.TID 0000.0001) %MON dynstat_salt_mean            =   3.4716389995358E+01
(PID.TID 0000.0001) %MON dynstat_salt_sd              =   2.9461996887741E-01
(PID.TID 0000.0001) %MON dynstat_salt_del2            =   2.5105978358400E-02
(PID.TID 0000.0001) %MON advcfl_uvel_max              =   3.3646211186924E-02
(PID.TID 0000.0001) %MON advcfl_vvel_max              =   1.5728759958403E-02
(PID.TID 0000.0001) %MON advcfl_wvel_max              =   1.6870598366154E-01
(PID.TID 0000.0001) %MON advcfl_W_hf_max              =   1.2084120013670E-01
(PID.TID 0000.0001) %MON pe_b_mean                    =   1.8531632525278E-04
(PID.TID 0000.0001) %MON ke_max                       =   2.4297092083675E-02
(PID.TID 0000.0001) %MON ke_mean                      =   3.2554064454930E-04
(PID.TID 0000.0001) %MON ke_vol                       =   1.3226782436723E+18
(PID.TID 0000.0001) %MON vort_r_min                   =  -7.5752127227845E-07
(PID.TID 0000.0001) %MON vort_r_max                   =   6.2717441153193E-07
(PID.TID 0000.0001) %MON vort_a_mean                  =  -2.5205769182830E-05
(PID.TID 0000.0001) %MON vort_a_sd                    =   7.3402424792821E-05
(PID.TID 0000.0001) %MON vort_p_mean                  =  -3.1758669292107E-05
(PID.TID 0000.0001) %MON vort_p_sd                    =   1.3126183683337E-04
(PID.TID 0000.0001) %MON surfExpan_theta_mean         =  -4.4950899823580E-06
(PID.TID 0000.0001) %MON surfExpan_salt_mean          =  -1.1766351550367E-06
(PID.TID 0000.0001) // =======================================================
(PID.TID 0000.0001) // End MONITOR dynamic field statistics
(PID.TID 0000.0001) // =======================================================
time,SST,SSS,fu,fv,Q,E-P,i0,i1,a,b =   1.3824E+06  9.0875E-01  3.4705E+01 -3.4926E-02 -5.5936E-02  2.6493E+02  0.0000E+00     1     2  3.3333E-02  9.6667E-01
time,fu0,fu1,fu =   1.3824E+06 -3.5633E-02 -1.4435E-02 -3.4926E-02  3.3333E-02  9.6667E-01
 cg2d: Sum(rhs),rhsMax =  -3.01245139944228E-13  1.02664651081151E+01
(PID.TID 0000.0001)                    cg2d_init_res =    6.92575901257873E-01
(PID.TID 0000.0001)                       cg2d_iters =    25
(PID.TID 0000.0001)                         cg2d_res =    2.80468156184308E-14
(PID.TID 0000.0001) // =======================================================
(PID.TID 0000.0001) // Begin MONITOR dynamic field statistics
(PID.TID 0000.0001) // =======================================================
(PID.TID 0000.0001) %MON time_tsnumber                =                    33
(PID.TID 0000.0001) %MON time_secondsf                =   1.4256000000000E+06
(PID.TID 0000.0001) %MON dynstat_eta_max              =   1.1484866558031E+00
(PID.TID 0000.0001) %MON dynstat_eta_min              =  -1.0463105143191E+00
(PID.TID 0000.0001) %MON dynstat_eta_mean             =  -1.0694306991743E-16
(PID.TID 0000.0001) %MON dynstat_eta_sd               =   3.8136145106184E-01
(PID.TID 0000.0001) %MON dynstat_eta_del2             =   1.8936608083895E-02
(PID.TID 0000.0001) %MON dynstat_uvel_max             =   2.1092493150901E-01
(PID.TID 0000.0001) %MON dynstat_uvel_min             =  -1.9869789719616E-01
(PID.TID 0000.0001) %MON dynstat_uvel_mean            =  -4.0475024124210E-03
(PID.TID 0000.0001) %MON dynstat_uvel_sd              =   2.0053461601400E-02
(PID.TID 0000.0001) %MON dynstat_uvel_del2            =   5.6568827693885E-03
(PID.TID 0000.0001) %MON dynstat_vvel_max             =   1.7344439323515E-01
(PID.TID 0000.0001) %MON dynstat_vvel_min             =  -1.5346165230563E-01
(PID.TID 0000.0001) %MON dynstat_vvel_mean            =   3.5771978196109E-03
(PID.TID 0000.0001) %MON dynstat_vvel_sd              =   1.6597173886628E-02
(PID.TID 0000.0001) %MON dynstat_vvel_del2            =   5.2897362506060E-03
(PID.TID 0000.0001) %MON dynstat_wvel_max             =   3.7667328701317E-04
(PID.TID 0000.0001) %MON dynstat_wvel_min             =  -3.7369067444519E-04
(PID.TID 0000.0001) %MON dynstat_wvel_mean            =  -2.1597120995322E-22
(PID.TID 0000.0001) %MON dynstat_wvel_sd              =   3.1864681433897E-05
(PID.TID 0000.0001) %MON dynstat_wvel_del2            =   1.2549908775297E-05
(PID.TID 0000.0001) %MON dynstat_theta_max            =   2.9507682277813E+01
(PID.TID 0000.0001) %MON dynstat_theta_min            =  -1.9437849885344E+00
(PID.TID 0000.0001) %MON dynstat_theta_mean           =   3.5940763571996E+00
(PID.TID 0000.0001) %MON dynstat_theta_sd             =   4.3451118167003E+00
(PID.TID 0000.0001) %MON dynstat_theta_del2           =   1.3422604575178E-01
(PID.TID 0000.0001) %MON dynstat_salt_max             =   3.7409827509194E+01
(PID.TID 0000.0001) %MON dynstat_salt_min             =   2.9803318704629E+01
(PID.TID 0000.0001) %MON dynstat_salt_mean            =   3.4716394001305E+01
(PID.TID 0000.0001) %MON dynstat_salt_sd              =   2.9455737714186E-01
(PID.TID 0000.0001) %MON dynstat_salt_del2            =   2.5084123484750E-02
(PID.TID 0000.0001) %MON advcfl_uvel_max              =   3.3585870215877E-02
(PID.TID 0000.0001) %MON advcfl_vvel_max              =   1.6848731945978E-02
(PID.TID 0000.0001) %MON advcfl_wvel_max              =   1.9182479405984E-01
(PID.TID 0000.0001) %MON advcfl_W_hf_max              =   1.3680846123371E-01
(PID.TID 0000.0001) %MON pe_b_mean                    =   1.8610360373733E-04
(PID.TID 0000.0001) %MON ke_max                       =   2.4129089571036E-02
(PID.TID 0000.0001) %MON ke_mean                      =   3.1955528895172E-04
(PID.TID 0000.0001) %MON ke_vol                       =   1.3226782436723E+18
(PID.TID 0000.0001) %MON vort_r_min                   =  -7.6484975486108E-07
(PID.TID 0000.0001) %MON vort_r_max                   =   6.2686969616679E-07
(PID.TID 0000.0001) %MON vort_a_mean                  =  -2.5205769205704E-05
(PID.TID 0000.0001) %MON vort_a_sd                    =   7.3402495896957E-05
(PID.TID 0000.0001) %MON vort_p_mean                  =  -3.1758669320927E-05
(PID.TID 0000.0001) %MON vort_p_sd                    =   1.3126199637908E-04
(PID.TID 0000.0001) %MON surfExpan_theta_mean         =  -2.8501943667119E-06
(PID.TID 0000.0001) %MON surfExpan_salt_mean          =  -6.8872054687988E-07
(PID.TID 0000.0001) // =======================================================
(PID.TID 0000.0001) // End MONITOR dynamic field statistics
(PID.TID 0000.0001) // =======================================================
time,SST,SSS,fu,fv,Q,E-P,i0,i1,a,b =   1.4256E+06  8.8391E-01  3.4700E+01 -3.4573E-02 -5.5276E-02  2.6451E+02  0.0000E+00     1     2  5.0000E-02  9.5000E-01
time,fu0,fu1,fu =   1.4256E+06 -3.5633E-02 -1.4435E-02 -3.4573E-02  5.0000E-02  9.5000E-01
 cg2d: Sum(rhs),rhsMax =   1.87558302222612E-14  1.03997402725258E+01
(PID.TID 0000.0001)                    cg2d_init_res =    6.69987644247031E-01
(PID.TID 0000.0001)                       cg2d_iters =    25
(PID.TID 0000.0001)                         cg2d_res =    3.21851595286791E-14
(PID.TID 0000.0001) // =======================================================
(PID.TID 0000.0001) // Begin MONITOR dynamic field statistics
(PID.TID 0000.0001) // =======================================================
(PID.TID 0000.0001) %MON time_tsnumber                =                    34
(PID.TID 0000.0001) %MON time_secondsf                =   1.4688000000000E+06
(PID.TID 0000.0001) %MON dynstat_eta_max              =   1.1625651132031E+00
(PID.TID 0000.0001) %MON dynstat_eta_min              =  -1.0540201482728E+00
(PID.TID 0000.0001) %MON dynstat_eta_mean             =  -1.3708195397209E-16
(PID.TID 0000.0001) %MON dynstat_eta_sd               =   3.8277630178388E-01
(PID.TID 0000.0001) %MON dynstat_eta_del2             =   1.8952852157702E-02
(PID.TID 0000.0001) %MON dynstat_uvel_max             =   2.1891295837636E-01
(PID.TID 0000.0001) %MON dynstat_uvel_min             =  -1.9846638422059E-01
(PID.TID 0000.0001) %MON dynstat_uvel_mean            =  -3.7841104405548E-03
(PID.TID 0000.0001) %MON dynstat_uvel_sd              =   1.9728881759507E-02
(PID.TID 0000.0001) %MON dynstat_uvel_del2            =   5.6839584841080E-03
(PID.TID 0000.0001) %MON dynstat_vvel_max             =   1.8352459344615E-01
(PID.TID 0000.0001) %MON dynstat_vvel_min             =  -1.5255276263876E-01
(PID.TID 0000.0001) %MON dynstat_vvel_mean            =   3.6881863696519E-03
(PID.TID 0000.0001) %MON dynstat_vvel_sd              =   1.6591177095100E-02
(PID.TID 0000.0001) %MON dynstat_vvel_del2            =   5.2769216663738E-03
(PID.TID 0000.0001) %MON dynstat_wvel_max             =   3.6325627255816E-04
(PID.TID 0000.0001) %MON dynstat_wvel_min             =  -3.6744893151295E-04
(PID.TID 0000.0001) %MON dynstat_wvel_mean            =   2.5665697687610E-22
(PID.TID 0000.0001) %MON dynstat_wvel_sd              =   3.1691409745082E-05
(PID.TID 0000.0001) %MON dynstat_wvel_del2            =   1.2489752707389E-05
(PID.TID 0000.0001) %MON dynstat_theta_max            =   2.9520603896477E+01
(PID.TID 0000.0001) %MON dynstat_theta_min            =  -1.9436938151273E+00
(PID.TID 0000.0001) %MON dynstat_theta_mean           =   3.5941187132311E+00
(PID.TID 0000.0001) %MON dynstat_theta_sd             =   4.3457143986610E+00
(PID.TID 0000.0001) %MON dynstat_theta_del2           =   1.3413495178600E-01
(PID.TID 0000.0001) %MON dynstat_salt_max             =   3.7408558220992E+01
(PID.TID 0000.0001) %MON dynstat_salt_min             =   2.9803856772111E+01
(PID.TID 0000.0001) %MON dynstat_salt_mean            =   3.4716392313491E+01
(PID.TID 0000.0001) %MON dynstat_salt_sd              =   2.9449266555720E-01
(PID.TID 0000.0001) %MON dynstat_salt_del2            =   2.5066382925182E-02
(PID.TID 0000.0001) %MON advcfl_uvel_max              =   3.3453666571846E-02
(PID.TID 0000.0001) %MON advcfl_vvel_max              =   1.7827942562989E-02
(PID.TID 0000.0001) %MON advcfl_wvel_max              =   2.0930676930041E-01
(PID.TID 0000.0001) %MON advcfl_W_hf_max              =   1.4875656327392E-01
(PID.TID 0000.0001) %MON pe_b_mean                    =   1.8748705376960E-04
(PID.TID 0000.0001) %MON ke_max                       =   2.3752069941033E-02
(PID.TID 0000.0001) %MON ke_mean                      =   3.1302443605039E-04
(PID.TID 0000.0001) %MON ke_vol                       =   1.3226782436723E+18
(PID.TID 0000.0001) %MON vort_r_min                   =  -7.7291464501356E-07
(PID.TID 0000.0001) %MON vort_r_max                   =   6.2819263450021E-07
(PID.TID 0000.0001) %MON vort_a_mean                  =  -2.5205769221688E-05
(PID.TID 0000.0001) %MON vort_a_sd                    =   7.3402559675189E-05
(PID.TID 0000.0001) %MON vort_p_mean                  =  -3.1758669341067E-05
(PID.TID 0000.0001) %MON vort_p_sd                    =   1.3126214297648E-04
(PID.TID 0000.0001) %MON surfExpan_theta_mean         =  -9.3874413252041E-07
(PID.TID 0000.0001) %MON surfExpan_salt_mean          =  -1.8979179890514E-07
(PID.TID 0000.0001) // =======================================================
(PID.TID 0000.0001) // End MONITOR dynamic field statistics
(PID.TID 0000.0001) // =======================================================
time,SST,SSS,fu,fv,Q,E-P,i0,i1,a,b =   1.4688E+06  8.5907E-01  3.4695E+01 -3.4220E-02 -5.4615E-02  2.6408E+02  0.0000E+00     1     2  6.6667E-02  9.3333E-01
time,fu0,fu1,fu =   1.4688E+06 -3.5633E-02 -1.4435E-02 -3.4220E-02  6.6667E-02  9.3333E-01
 cg2d: Sum(rhs),rhsMax =  -1.85747250913693E-13  1.04409394031141E+01
(PID.TID 0000.0001)                    cg2d_init_res =    6.48587786271763E-01
(PID.TID 0000.0001)                       cg2d_iters =    25
(PID.TID 0000.0001)                         cg2d_res =    3.48262340038794E-14
(PID.TID 0000.0001) // =======================================================
(PID.TID 0000.0001) // Begin MONITOR dynamic field statistics
(PID.TID 0000.0001) // =======================================================
(PID.TID 0000.0001) %MON time_tsnumber                =                    35
(PID.TID 0000.0001) %MON time_secondsf                =   1.5120000000000E+06
(PID.TID 0000.0001) %MON dynstat_eta_max              =   1.1663992052991E+00
(PID.TID 0000.0001) %MON dynstat_eta_min              =  -1.0578327795659E+00
(PID.TID 0000.0001) %MON dynstat_eta_mean             =   4.1748500167280E-17
(PID.TID 0000.0001) %MON dynstat_eta_sd               =   3.8471702927026E-01
(PID.TID 0000.0001) %MON dynstat_eta_del2             =   1.8968061345243E-02
(PID.TID 0000.0001) %MON dynstat_uvel_max             =   2.2419147151753E-01
(PID.TID 0000.0001) %MON dynstat_uvel_min             =  -1.9776513057354E-01
(PID.TID 0000.0001) %MON dynstat_uvel_mean            =  -3.5600157909801E-03
(PID.TID 0000.0001) %MON dynstat_uvel_sd              =   1.9392570047184E-02
(PID.TID 0000.0001) %MON dynstat_uvel_del2            =   5.7080065838772E-03
(PID.TID 0000.0001) %MON dynstat_vvel_max             =   1.9198363657675E-01
(PID.TID 0000.0001) %MON dynstat_vvel_min             =  -1.5752541903775E-01
(PID.TID 0000.0001) %MON dynstat_vvel_mean            =   3.7676475397063E-03
(PID.TID 0000.0001) %MON dynstat_vvel_sd              =   1.6557457141234E-02
(PID.TID 0000.0001) %MON dynstat_vvel_del2            =   5.2648402051395E-03
(PID.TID 0000.0001) %MON dynstat_wvel_max             =   3.4804530529868E-04
(PID.TID 0000.0001) %MON dynstat_wvel_min             =  -3.5977252225394E-04
(PID.TID 0000.0001) %MON dynstat_wvel_mean            =  -1.6854887549932E-22
(PID.TID 0000.0001) %MON dynstat_wvel_sd              =   3.1535609476768E-05
(PID.TID 0000.0001) %MON dynstat_wvel_del2            =   1.2452821470994E-05
(PID.TID 0000.0001) %MON dynstat_theta_max            =   2.9532184131032E+01
(PID.TID 0000.0001) %MON dynstat_theta_min            =  -1.9430662634707E+00
(PID.TID 0000.0001) %MON dynstat_theta_mean           =   3.5941374941625E+00
(PID.TID 0000.0001) %MON dynstat_theta_sd             =   4.3462757321829E+00
(PID.TID 0000.0001) %MON dynstat_theta_del2           =   1.3404389344609E-01
(PID.TID 0000.0001) %MON dynstat_salt_max             =   3.7407187974859E+01
(PID.TID 0000.0001) %MON dynstat_salt_min             =   2.9804372197707E+01
(PID.TID 0000.0001) %MON dynstat_salt_mean            =   3.4716385246607E+01
(PID.TID 0000.0001) %MON dynstat_salt_sd              =   2.9442592165138E-01
(PID.TID 0000.0001) %MON dynstat_salt_del2            =   2.5046478222711E-02
(PID.TID 0000.0001) %MON advcfl_uvel_max              =   3.3260379127810E-02
(PID.TID 0000.0001) %MON advcfl_vvel_max              =   1.8649670769756E-02
(PID.TID 0000.0001) %MON advcfl_wvel_max              =   2.2058814769755E-01
(PID.TID 0000.0001) %MON advcfl_W_hf_max              =   1.5629911905865E-01
(PID.TID 0000.0001) %MON pe_b_mean                    =   1.8939304267108E-04
(PID.TID 0000.0001) %MON ke_max                       =   2.3163536660135E-02
(PID.TID 0000.0001) %MON ke_mean                      =   3.0606346858956E-04
(PID.TID 0000.0001) %MON ke_vol                       =   1.3226782436723E+18
(PID.TID 0000.0001) %MON vort_r_min                   =  -7.8152644873263E-07
(PID.TID 0000.0001) %MON vort_r_max                   =   6.3110654574932E-07
(PID.TID 0000.0001) %MON vort_a_mean                  =  -2.5205769229550E-05
(PID.TID 0000.0001) %MON vort_a_sd                    =   7.3402616059008E-05
(PID.TID 0000.0001) %MON vort_p_mean                  =  -3.1758669350973E-05
(PID.TID 0000.0001) %MON vort_p_sd                    =   1.3126227689553E-04
(PID.TID 0000.0001) %MON surfExpan_theta_mean         =   1.1108921550703E-06
(PID.TID 0000.0001) %MON surfExpan_salt_mean          =   2.9659059242833E-07
(PID.TID 0000.0001) // =======================================================
(PID.TID 0000.0001) // End MONITOR dynamic field statistics
(PID.TID 0000.0001) // =======================================================
time,SST,SSS,fu,fv,Q,E-P,i0,i1,a,b =   1.5120E+06  8.3424E-01  3.4690E+01 -3.3866E-02 -5.3955E-02  2.6366E+02  0.0000E+00     1     2  8.3333E-02  9.1667E-01
time,fu0,fu1,fu =   1.5120E+06 -3.5633E-02 -1.4435E-02 -3.3866E-02  8.3333E-02  9.1667E-01
 cg2d: Sum(rhs),rhsMax =   3.35557970299050E-13  1.03873041457502E+01
(PID.TID 0000.0001)                    cg2d_init_res =    6.29996091566878E-01
(PID.TID 0000.0001)                       cg2d_iters =    25
(PID.TID 0000.0001)                         cg2d_res =    3.67656225475613E-14
(PID.TID 0000.0001) // =======================================================
(PID.TID 0000.0001) // Begin MONITOR dynamic field statistics
(PID.TID 0000.0001) // =======================================================
(PID.TID 0000.0001) %MON time_tsnumber                =                    36
(PID.TID 0000.0001) %MON time_secondsf                =   1.5552000000000E+06
(PID.TID 0000.0001) %MON dynstat_eta_max              =   1.1596895034498E+00
(PID.TID 0000.0001) %MON dynstat_eta_min              =  -1.0578992720694E+00
(PID.TID 0000.0001) %MON dynstat_eta_mean             =  -2.8769858761812E-18
(PID.TID 0000.0001) %MON dynstat_eta_sd               =   3.8706580655369E-01
(PID.TID 0000.0001) %MON dynstat_eta_del2             =   1.8909525707379E-02
(PID.TID 0000.0001) %MON dynstat_uvel_max             =   2.2660784908086E-01
(PID.TID 0000.0001) %MON dynstat_uvel_min             =  -1.9662237763809E-01
(PID.TID 0000.0001) %MON dynstat_uvel_mean            =  -3.3725905710138E-03
(PID.TID 0000.0001) %MON dynstat_uvel_sd              =   1.9054580674808E-02
(PID.TID 0000.0001) %MON dynstat_uvel_del2            =   5.7268180323967E-03
(PID.TID 0000.0001) %MON dynstat_vvel_max             =   1.9867568573631E-01
(PID.TID 0000.0001) %MON dynstat_vvel_min             =  -1.6259205366968E-01
(PID.TID 0000.0001) %MON dynstat_vvel_mean            =   3.8116971765606E-03
(PID.TID 0000.0001) %MON dynstat_vvel_sd              =   1.6496196841023E-02
(PID.TID 0000.0001) %MON dynstat_vvel_del2            =   5.2517481119176E-03
(PID.TID 0000.0001) %MON dynstat_wvel_max             =   3.3122453777469E-04
(PID.TID 0000.0001) %MON dynstat_wvel_min             =  -3.5082643444213E-04
(PID.TID 0000.0001) %MON dynstat_wvel_mean            =   4.1461400025556E-23
(PID.TID 0000.0001) %MON dynstat_wvel_sd              =   3.1391852711480E-05
(PID.TID 0000.0001) %MON dynstat_wvel_del2            =   1.2437245332227E-05
(PID.TID 0000.0001) %MON dynstat_theta_max            =   2.9542340032581E+01
(PID.TID 0000.0001) %MON dynstat_theta_min            =  -1.9464436713545E+00
(PID.TID 0000.0001) %MON dynstat_theta_mean           =   3.5941331950326E+00
(PID.TID 0000.0001) %MON dynstat_theta_sd             =   4.3467745189312E+00
(PID.TID 0000.0001) %MON dynstat_theta_del2           =   1.3394031452520E-01
(PID.TID 0000.0001) %MON dynstat_salt_max             =   3.7405706287360E+01
(PID.TID 0000.0001) %MON dynstat_salt_min             =   2.9804847433332E+01
(PID.TID 0000.0001) %MON dynstat_salt_mean            =   3.4716373336051E+01
(PID.TID 0000.0001) %MON dynstat_salt_sd              =   2.9435774534995E-01
(PID.TID 0000.0001) %MON dynstat_salt_del2            =   2.5023293801939E-02
(PID.TID 0000.0001) %MON advcfl_uvel_max              =   3.3017217100663E-02
(PID.TID 0000.0001) %MON advcfl_vvel_max              =   1.9299749681826E-02
(PID.TID 0000.0001) %MON advcfl_wvel_max              =   2.2530716753724E-01
(PID.TID 0000.0001) %MON advcfl_W_hf_max              =   1.5919401588039E-01
(PID.TID 0000.0001) %MON pe_b_mean                    =   1.9171266966392E-04
(PID.TID 0000.0001) %MON ke_max                       =   2.2368430556071E-02
(PID.TID 0000.0001) %MON ke_mean                      =   2.9881028641011E-04
(PID.TID 0000.0001) %MON ke_vol                       =   1.3226782436723E+18
(PID.TID 0000.0001) %MON vort_r_min                   =  -7.9043429545744E-07
(PID.TID 0000.0001) %MON vort_r_max                   =   6.3544218868639E-07
(PID.TID 0000.0001) %MON vort_a_mean                  =  -2.5205769228641E-05
(PID.TID 0000.0001) %MON vort_a_sd                    =   7.3402665216145E-05
(PID.TID 0000.0001) %MON vort_p_mean                  =  -3.1758669349828E-05
(PID.TID 0000.0001) %MON vort_p_sd                    =   1.3126239851834E-04
(PID.TID 0000.0001) %MON surfExpan_theta_mean         =   3.1842769886364E-06
(PID.TID 0000.0001) %MON surfExpan_salt_mean          =   7.4920011401450E-07
(PID.TID 0000.0001) // =======================================================
(PID.TID 0000.0001) // End MONITOR dynamic field statistics
(PID.TID 0000.0001) // =======================================================
time,SST,SSS,fu,fv,Q,E-P,i0,i1,a,b =   1.5552E+06  8.0940E-01  3.4685E+01 -3.3513E-02 -5.3295E-02  2.6324E+02  0.0000E+00     1     2  1.0000E-01  9.0000E-01
time,fu0,fu1,fu =   1.5552E+06 -3.5633E-02 -1.4435E-02 -3.3513E-02  1.0000E-01  9.0000E-01
 cg2d: Sum(rhs),rhsMax =   3.92741394961149E-15  1.02380203676883E+01
(PID.TID 0000.0001)                    cg2d_init_res =    6.16439671904657E-01
(PID.TID 0000.0001)                       cg2d_iters =    25
(PID.TID 0000.0001)                         cg2d_res =    3.81959141451733E-14
(PID.TID 0000.0001) // =======================================================
(PID.TID 0000.0001) // Begin MONITOR dynamic field statistics
(PID.TID 0000.0001) // =======================================================
(PID.TID 0000.0001) %MON time_tsnumber                =                    37
(PID.TID 0000.0001) %MON time_secondsf                =   1.5984000000000E+06
(PID.TID 0000.0001) %MON dynstat_eta_max              =   1.1423477402621E+00
(PID.TID 0000.0001) %MON dynstat_eta_min              =  -1.0548799157826E+00
(PID.TID 0000.0001) %MON dynstat_eta_mean             =   4.9622679175497E-17
(PID.TID 0000.0001) %MON dynstat_eta_sd               =   3.8968620460951E-01
(PID.TID 0000.0001) %MON dynstat_eta_del2             =   1.8780475490092E-02
(PID.TID 0000.0001) %MON dynstat_uvel_max             =   2.2607849243061E-01
(PID.TID 0000.0001) %MON dynstat_uvel_min             =  -1.9506271737948E-01
(PID.TID 0000.0001) %MON dynstat_uvel_mean            =  -3.2182483144975E-03
(PID.TID 0000.0001) %MON dynstat_uvel_sd              =   1.8724449978607E-02
(PID.TID 0000.0001) %MON dynstat_uvel_del2            =   5.7404525172367E-03
(PID.TID 0000.0001) %MON dynstat_vvel_max             =   2.0348662456763E-01
(PID.TID 0000.0001) %MON dynstat_vvel_min             =  -1.6469879341610E-01
(PID.TID 0000.0001) %MON dynstat_vvel_mean            =   3.8176828968558E-03
(PID.TID 0000.0001) %MON dynstat_vvel_sd              =   1.6408922932323E-02
(PID.TID 0000.0001) %MON dynstat_vvel_del2            =   5.2397299254746E-03
(PID.TID 0000.0001) %MON dynstat_wvel_max             =   3.1298872455155E-04
(PID.TID 0000.0001) %MON dynstat_wvel_min             =  -3.4081622282787E-04
(PID.TID 0000.0001) %MON dynstat_wvel_mean            =  -2.4360367262032E-22
(PID.TID 0000.0001) %MON dynstat_wvel_sd              =   3.1257588250148E-05
(PID.TID 0000.0001) %MON dynstat_wvel_del2            =   1.2437994493156E-05
(PID.TID 0000.0001) %MON dynstat_theta_max            =   2.9551026951909E+01
(PID.TID 0000.0001) %MON dynstat_theta_min            =  -1.9469980188856E+00
(PID.TID 0000.0001) %MON dynstat_theta_mean           =   3.5941073211977E+00
(PID.TID 0000.0001) %MON dynstat_theta_sd             =   4.3471938880289E+00
(PID.TID 0000.0001) %MON dynstat_theta_del2           =   1.3381854262435E-01
(PID.TID 0000.0001) %MON dynstat_salt_max             =   3.7404098615670E+01
(PID.TID 0000.0001) %MON dynstat_salt_min             =   2.9805266571873E+01
(PID.TID 0000.0001) %MON dynstat_salt_mean            =   3.4716357291028E+01
(PID.TID 0000.0001) %MON dynstat_salt_sd              =   2.9428845608264E-01
(PID.TID 0000.0001) %MON dynstat_salt_del2            =   2.4998797664634E-02
(PID.TID 0000.0001) %MON advcfl_uvel_max              =   3.2735586108826E-02
(PID.TID 0000.0001) %MON advcfl_vvel_max              =   1.9767093810196E-02
(PID.TID 0000.0001) %MON advcfl_wvel_max              =   2.2331709560414E-01
(PID.TID 0000.0001) %MON advcfl_W_hf_max              =   1.5735187181139E-01
(PID.TID 0000.0001) %MON pe_b_mean                    =   1.9431720860533E-04
(PID.TID 0000.0001) %MON ke_max                       =   2.1379479790945E-02
(PID.TID 0000.0001) %MON ke_mean                      =   2.9141315409583E-04
(PID.TID 0000.0001) %MON ke_vol                       =   1.3226782436723E+18
(PID.TID 0000.0001) %MON vort_r_min                   =  -7.9934624407733E-07
(PID.TID 0000.0001) %MON vort_r_max                   =   6.4092311699316E-07
(PID.TID 0000.0001) %MON vort_a_mean                  =  -2.5205769218898E-05
(PID.TID 0000.0001) %MON vort_a_sd                    =   7.3402707526005E-05
(PID.TID 0000.0001) %MON vort_p_mean                  =  -3.1758669337552E-05
(PID.TID 0000.0001) %MON vort_p_sd                    =   1.3126250838138E-04
(PID.TID 0000.0001) %MON surfExpan_theta_mean         =   5.1818917316961E-06
(PID.TID 0000.0001) %MON surfExpan_salt_mean          =   1.1498045146289E-06
(PID.TID 0000.0001) // =======================================================
(PID.TID 0000.0001) // End MONITOR dynamic field statistics
(PID.TID 0000.0001) // =======================================================
time,SST,SSS,fu,fv,Q,E-P,i0,i1,a,b =   1.5984E+06  7.8456E-01  3.4680E+01 -3.3160E-02 -5.2634E-02  2.6282E+02  0.0000E+00     1     2  1.1667E-01  8.8333E-01
time,fu0,fu1,fu =   1.5984E+06 -3.5633E-02 -1.4435E-02 -3.3160E-02  1.1667E-01  8.8333E-01
 cg2d: Sum(rhs),rhsMax =  -3.66290331399455E-13  9.99413254472562E+00
(PID.TID 0000.0001)                    cg2d_init_res =    6.10424522092310E-01
(PID.TID 0000.0001)                       cg2d_iters =    25
(PID.TID 0000.0001)                         cg2d_res =    3.93399296167988E-14
(PID.TID 0000.0001) // =======================================================
(PID.TID 0000.0001) // Begin MONITOR dynamic field statistics
(PID.TID 0000.0001) // =======================================================
(PID.TID 0000.0001) %MON time_tsnumber                =                    38
(PID.TID 0000.0001) %MON time_secondsf                =   1.6416000000000E+06
(PID.TID 0000.0001) %MON dynstat_eta_max              =   1.1144876388495E+00
(PID.TID 0000.0001) %MON dynstat_eta_min              =  -1.0487792761967E+00
(PID.TID 0000.0001) %MON dynstat_eta_mean             =  -2.8396020708654E-16
(PID.TID 0000.0001) %MON dynstat_eta_sd               =   3.9244127223269E-01
(PID.TID 0000.0001) %MON dynstat_eta_del2             =   1.8697784835938E-02
(PID.TID 0000.0001) %MON dynstat_uvel_max             =   2.2258888216937E-01
(PID.TID 0000.0001) %MON dynstat_uvel_min             =  -1.9310584466978E-01
(PID.TID 0000.0001) %MON dynstat_uvel_mean            =  -3.0926634964200E-03
(PID.TID 0000.0001) %MON dynstat_uvel_sd              =   1.8410653905786E-02
(PID.TID 0000.0001) %MON dynstat_uvel_del2            =   5.7490509809881E-03
(PID.TID 0000.0001) %MON dynstat_vvel_max             =   2.0633809909705E-01
(PID.TID 0000.0001) %MON dynstat_vvel_min             =  -1.6380536252298E-01
(PID.TID 0000.0001) %MON dynstat_vvel_mean            =   3.7841463826545E-03
(PID.TID 0000.0001) %MON dynstat_vvel_sd              =   1.6298095882704E-02
(PID.TID 0000.0001) %MON dynstat_vvel_del2            =   5.2285178418995E-03
(PID.TID 0000.0001) %MON dynstat_wvel_max             =   2.9353785064481E-04
(PID.TID 0000.0001) %MON dynstat_wvel_min             =  -3.2997349032006E-04
(PID.TID 0000.0001) %MON dynstat_wvel_mean            =  -2.1963548418085E-22
(PID.TID 0000.0001) %MON dynstat_wvel_sd              =   3.1131124079913E-05
(PID.TID 0000.0001) %MON dynstat_wvel_del2            =   1.2438285412684E-05
(PID.TID 0000.0001) %MON dynstat_theta_max            =   2.9558225519580E+01
(PID.TID 0000.0001) %MON dynstat_theta_min            =  -1.9470284746051E+00
(PID.TID 0000.0001) %MON dynstat_theta_mean           =   3.5940620348981E+00
(PID.TID 0000.0001) %MON dynstat_theta_sd             =   4.3475227832120E+00
(PID.TID 0000.0001) %MON dynstat_theta_del2           =   1.3369202473534E-01
(PID.TID 0000.0001) %MON dynstat_salt_max             =   3.7402359494109E+01
(PID.TID 0000.0001) %MON dynstat_salt_min             =   2.9805616011958E+01
(PID.TID 0000.0001) %MON dynstat_salt_mean            =   3.4716337963830E+01
(PID.TID 0000.0001) %MON dynstat_salt_sd              =   2.9421878400295E-01
(PID.TID 0000.0001) %MON dynstat_salt_del2            =   2.4970706791978E-02
(PID.TID 0000.0001) %MON advcfl_uvel_max              =   3.2426793790358E-02
(PID.TID 0000.0001) %MON advcfl_vvel_max              =   2.0044091694653E-02
(PID.TID 0000.0001) %MON advcfl_wvel_max              =   2.1469283425350E-01
(PID.TID 0000.0001) %MON advcfl_W_hf_max              =   1.5083990941533E-01
(PID.TID 0000.0001) %MON pe_b_mean                    =   1.9707455295760E-04
(PID.TID 0000.0001) %MON ke_max                       =   2.0216940903587E-02
(PID.TID 0000.0001) %MON ke_mean                      =   2.8401722360588E-04
(PID.TID 0000.0001) %MON ke_vol                       =   1.3226782436723E+18
(PID.TID 0000.0001) %MON vort_r_min                   =  -8.0794646089205E-07
(PID.TID 0000.0001) %MON vort_r_max                   =   6.4718903513802E-07
(PID.TID 0000.0001) %MON vort_a_mean                  =  -2.5205769200741E-05
(PID.TID 0000.0001) %MON vort_a_sd                    =   7.3402743549934E-05
(PID.TID 0000.0001) %MON vort_p_mean                  =  -3.1758669314674E-05
(PID.TID 0000.0001) %MON vort_p_sd                    =   1.3126260717967E-04
(PID.TID 0000.0001) %MON surfExpan_theta_mean         =   7.0230022199135E-06
(PID.TID 0000.0001) %MON surfExpan_salt_mean          =   1.4840127683999E-06
(PID.TID 0000.0001) // =======================================================
(PID.TID 0000.0001) // End MONITOR dynamic field statistics
(PID.TID 0000.0001) // =======================================================
time,SST,SSS,fu,fv,Q,E-P,i0,i1,a,b =   1.6416E+06  7.5972E-01  3.4675E+01 -3.2807E-02 -5.1974E-02  2.6240E+02  0.0000E+00     1     2  1.3333E-01  8.6667E-01
time,fu0,fu1,fu =   1.6416E+06 -3.5633E-02 -1.4435E-02 -3.2807E-02  1.3333E-01  8.6667E-01
 cg2d: Sum(rhs),rhsMax =   1.22964138871140E-13  9.65836231434299E+00
(PID.TID 0000.0001)                    cg2d_init_res =    6.14347693434133E-01
(PID.TID 0000.0001)                       cg2d_iters =    25
(PID.TID 0000.0001)                         cg2d_res =    4.03565584556934E-14
(PID.TID 0000.0001) // =======================================================
(PID.TID 0000.0001) // Begin MONITOR dynamic field statistics
(PID.TID 0000.0001) // =======================================================
(PID.TID 0000.0001) %MON time_tsnumber                =                    39
(PID.TID 0000.0001) %MON time_secondsf                =   1.6848000000000E+06
(PID.TID 0000.0001) %MON dynstat_eta_max              =   1.0764072012705E+00
(PID.TID 0000.0001) %MON dynstat_eta_min              =  -1.0401512262616E+00
(PID.TID 0000.0001) %MON dynstat_eta_mean             =  -2.9609481729318E-17
(PID.TID 0000.0001) %MON dynstat_eta_sd               =   3.9520840706235E-01
(PID.TID 0000.0001) %MON dynstat_eta_del2             =   1.8718287201436E-02
(PID.TID 0000.0001) %MON dynstat_uvel_max             =   2.1619152972020E-01
(PID.TID 0000.0001) %MON dynstat_uvel_min             =  -1.9076612648699E-01
(PID.TID 0000.0001) %MON dynstat_uvel_mean            =  -2.9910072913701E-03
(PID.TID 0000.0001) %MON dynstat_uvel_sd              =   1.8120119012932E-02
(PID.TID 0000.0001) %MON dynstat_uvel_del2            =   5.7500696613776E-03
(PID.TID 0000.0001) %MON dynstat_vvel_max             =   2.0719014631797E-01
(PID.TID 0000.0001) %MON dynstat_vvel_min             =  -1.5994263818213E-01
(PID.TID 0000.0001) %MON dynstat_vvel_mean            =   3.7107528566066E-03
(PID.TID 0000.0001) %MON dynstat_vvel_sd              =   1.6166751857869E-02
(PID.TID 0000.0001) %MON dynstat_vvel_del2            =   5.2158731942723E-03
(PID.TID 0000.0001) %MON dynstat_wvel_max             =   2.7307129948082E-04
(PID.TID 0000.0001) %MON dynstat_wvel_min             =  -3.1854134778807E-04
(PID.TID 0000.0001) %MON dynstat_wvel_mean            =  -3.0416669115047E-22
(PID.TID 0000.0001) %MON dynstat_wvel_sd              =   3.1009851025328E-05
(PID.TID 0000.0001) %MON dynstat_wvel_del2            =   1.2438439652198E-05
(PID.TID 0000.0001) %MON dynstat_theta_max            =   2.9563931482326E+01
(PID.TID 0000.0001) %MON dynstat_theta_min            =  -1.9468017811963E+00
(PID.TID 0000.0001) %MON dynstat_theta_mean           =   3.5940001602021E+00
(PID.TID 0000.0001) %MON dynstat_theta_sd             =   4.3477532180727E+00
(PID.TID 0000.0001) %MON dynstat_theta_del2           =   1.3358167582363E-01
(PID.TID 0000.0001) %MON dynstat_salt_max             =   3.7400481827535E+01
(PID.TID 0000.0001) %MON dynstat_salt_min             =   2.9805884941031E+01
(PID.TID 0000.0001) %MON dynstat_salt_mean            =   3.4716316290597E+01
(PID.TID 0000.0001) %MON dynstat_salt_sd              =   2.9414919475370E-01
(PID.TID 0000.0001) %MON dynstat_salt_del2            =   2.4941250462834E-02
(PID.TID 0000.0001) %MON advcfl_uvel_max              =   3.2101756513823E-02
(PID.TID 0000.0001) %MON advcfl_vvel_max              =   2.0126861249569E-02
(PID.TID 0000.0001) %MON advcfl_wvel_max              =   1.9972943552584E-01
(PID.TID 0000.0001) %MON advcfl_W_hf_max              =   1.5676677660159E-01
(PID.TID 0000.0001) %MON pe_b_mean                    =   1.9986352795870E-04
(PID.TID 0000.0001) %MON ke_max                       =   1.8907654823354E-02
(PID.TID 0000.0001) %MON ke_mean                      =   2.7675311937693E-04
(PID.TID 0000.0001) %MON ke_vol                       =   1.3226782436723E+18
(PID.TID 0000.0001) %MON vort_r_min                   =  -8.1591073118375E-07
(PID.TID 0000.0001) %MON vort_r_max                   =   6.5382081952258E-07
(PID.TID 0000.0001) %MON vort_a_mean                  =  -2.5205769175049E-05
(PID.TID 0000.0001) %MON vort_a_sd                    =   7.3402773994529E-05
(PID.TID 0000.0001) %MON vort_p_mean                  =  -3.1758669282304E-05
(PID.TID 0000.0001) %MON vort_p_sd                    =   1.3126269577818E-04
(PID.TID 0000.0001) %MON surfExpan_theta_mean         =   8.6460372201015E-06
(PID.TID 0000.0001) %MON surfExpan_salt_mean          =   1.7416886298144E-06
(PID.TID 0000.0001) // =======================================================
(PID.TID 0000.0001) // End MONITOR dynamic field statistics
(PID.TID 0000.0001) // =======================================================
time,SST,SSS,fu,fv,Q,E-P,i0,i1,a,b =   1.6848E+06  7.3488E-01  3.4671E+01 -3.2453E-02 -5.1313E-02  2.6198E+02  0.0000E+00     1     2  1.5000E-01  8.5000E-01
time,fu0,fu1,fu =   1.6848E+06 -3.5633E-02 -1.4435E-02 -3.2453E-02  1.5000E-01  8.5000E-01
 cg2d: Sum(rhs),rhsMax =  -1.03556052621911E-13  9.23489370340409E+00
(PID.TID 0000.0001)                    cg2d_init_res =    6.30132645734156E-01
(PID.TID 0000.0001)                       cg2d_iters =    25
(PID.TID 0000.0001)                         cg2d_res =    4.13422157315974E-14
(PID.TID 0000.0001) // =======================================================
(PID.TID 0000.0001) // Begin MONITOR dynamic field statistics
(PID.TID 0000.0001) // =======================================================
(PID.TID 0000.0001) %MON time_tsnumber                =                    40
(PID.TID 0000.0001) %MON time_secondsf                =   1.7280000000000E+06
(PID.TID 0000.0001) %MON dynstat_eta_max              =   1.0285673048510E+00
(PID.TID 0000.0001) %MON dynstat_eta_min              =  -1.0642125626359E+00
(PID.TID 0000.0001) %MON dynstat_eta_mean             =  -5.3679823888478E-17
(PID.TID 0000.0001) %MON dynstat_eta_sd               =   3.9788879615993E-01
(PID.TID 0000.0001) %MON dynstat_eta_del2             =   1.8737119043170E-02
(PID.TID 0000.0001) %MON dynstat_uvel_max             =   2.0700199671455E-01
(PID.TID 0000.0001) %MON dynstat_uvel_min             =  -1.9766003354530E-01
(PID.TID 0000.0001) %MON dynstat_uvel_mean            =  -2.9081826293326E-03
(PID.TID 0000.0001) %MON dynstat_uvel_sd              =   1.7857869520084E-02
(PID.TID 0000.0001) %MON dynstat_uvel_del2            =   5.7449141621931E-03
(PID.TID 0000.0001) %MON dynstat_vvel_max             =   2.0604219218735E-01
(PID.TID 0000.0001) %MON dynstat_vvel_min             =  -1.5321184989587E-01
(PID.TID 0000.0001) %MON dynstat_vvel_mean            =   3.5981988228743E-03
(PID.TID 0000.0001) %MON dynstat_vvel_sd              =   1.6018283730038E-02
(PID.TID 0000.0001) %MON dynstat_vvel_del2            =   5.2042780088116E-03
(PID.TID 0000.0001) %MON dynstat_wvel_max             =   2.6205599039746E-04
(PID.TID 0000.0001) %MON dynstat_wvel_min             =  -3.0675997205543E-04
(PID.TID 0000.0001) %MON dynstat_wvel_mean            =   1.6015311054917E-22
(PID.TID 0000.0001) %MON dynstat_wvel_sd              =   3.0889149886238E-05
(PID.TID 0000.0001) %MON dynstat_wvel_del2            =   1.2441289456262E-05
(PID.TID 0000.0001) %MON dynstat_theta_max            =   2.9568149517621E+01
(PID.TID 0000.0001) %MON dynstat_theta_min            =  -1.9463463845622E+00
(PID.TID 0000.0001) %MON dynstat_theta_mean           =   3.5939248885024E+00
(PID.TID 0000.0001) %MON dynstat_theta_sd             =   4.3478810482942E+00
(PID.TID 0000.0001) %MON dynstat_theta_del2           =   1.3352019877950E-01
(PID.TID 0000.0001) %MON dynstat_salt_max             =   3.7398461415301E+01
(PID.TID 0000.0001) %MON dynstat_salt_min             =   2.9806065622264E+01
(PID.TID 0000.0001) %MON dynstat_salt_mean            =   3.4716293242501E+01
(PID.TID 0000.0001) %MON dynstat_salt_sd              =   2.9407976789842E-01
(PID.TID 0000.0001) %MON dynstat_salt_del2            =   2.4912458481861E-02
(PID.TID 0000.0001) %MON advcfl_uvel_max              =   3.1770681690336E-02
(PID.TID 0000.0001) %MON advcfl_vvel_max              =   2.0015346711264E-02
(PID.TID 0000.0001) %MON advcfl_wvel_max              =   1.7893358487310E-01
(PID.TID 0000.0001) %MON advcfl_W_hf_max              =   1.6059435292739E-01
(PID.TID 0000.0001) %MON pe_b_mean                    =   2.0258375692790E-04
(PID.TID 0000.0001) %MON ke_max                       =   1.8285186954662E-02
(PID.TID 0000.0001) %MON ke_mean                      =   2.6973000226166E-04
(PID.TID 0000.0001) %MON ke_vol                       =   1.3226782436723E+18
(PID.TID 0000.0001) %MON vort_r_min                   =  -8.2291933562777E-07
(PID.TID 0000.0001) %MON vort_r_max                   =   6.6036355396357E-07
(PID.TID 0000.0001) %MON vort_a_mean                  =  -2.5205769143016E-05
(PID.TID 0000.0001) %MON vort_a_sd                    =   7.3402799673056E-05
(PID.TID 0000.0001) %MON vort_p_mean                  =  -3.1758669241943E-05
(PID.TID 0000.0001) %MON vort_p_sd                    =   1.3126277518448E-04
(PID.TID 0000.0001) %MON surfExpan_theta_mean         =   1.0006255499507E-05
(PID.TID 0000.0001) %MON surfExpan_salt_mean          =   1.9166331666381E-06
(PID.TID 0000.0001) // =======================================================
(PID.TID 0000.0001) // End MONITOR dynamic field statistics
(PID.TID 0000.0001) // =======================================================
time,SST,SSS,fu,fv,Q,E-P,i0,i1,a,b =   1.7280E+06  7.1005E-01  3.4666E+01 -3.2100E-02 -5.0653E-02  2.6156E+02  0.0000E+00     1     2  1.6667E-01  8.3333E-01
time,fu0,fu1,fu =   1.7280E+06 -3.5633E-02 -1.4435E-02 -3.2100E-02  1.6667E-01  8.3333E-01
 cg2d: Sum(rhs),rhsMax =  -3.48679418671338E-13  8.72915881527208E+00
(PID.TID 0000.0001)                    cg2d_init_res =    6.59061112382170E-01
(PID.TID 0000.0001)                       cg2d_iters =    25
(PID.TID 0000.0001)                         cg2d_res =    4.22749846612269E-14
(PID.TID 0000.0001) // =======================================================
(PID.TID 0000.0001) // Begin MONITOR dynamic field statistics
(PID.TID 0000.0001) // =======================================================
(PID.TID 0000.0001) %MON time_tsnumber                =                    41
(PID.TID 0000.0001) %MON time_secondsf                =   1.7712000000000E+06
(PID.TID 0000.0001) %MON dynstat_eta_max              =   9.7157007779961E-01
(PID.TID 0000.0001) %MON dynstat_eta_min              =  -1.0802094226582E+00
(PID.TID 0000.0001) %MON dynstat_eta_mean             =  -9.6911918451414E-17
(PID.TID 0000.0001) %MON dynstat_eta_sd               =   4.0041081275394E-01
(PID.TID 0000.0001) %MON dynstat_eta_del2             =   1.8808377897458E-02
(PID.TID 0000.0001) %MON dynstat_uvel_max             =   1.9960909258101E-01
(PID.TID 0000.0001) %MON dynstat_uvel_min             =  -2.0871084764402E-01
(PID.TID 0000.0001) %MON dynstat_uvel_mean            =  -2.8390552091887E-03
(PID.TID 0000.0001) %MON dynstat_uvel_sd              =   1.7626863850345E-02
(PID.TID 0000.0001) %MON dynstat_uvel_del2            =   5.7336720470717E-03
(PID.TID 0000.0001) %MON dynstat_vvel_max             =   2.0293250087762E-01
(PID.TID 0000.0001) %MON dynstat_vvel_min             =  -1.5273613288867E-01
(PID.TID 0000.0001) %MON dynstat_vvel_mean            =   3.4481026062665E-03
(PID.TID 0000.0001) %MON dynstat_vvel_sd              =   1.5856395601167E-02
(PID.TID 0000.0001) %MON dynstat_vvel_del2            =   5.1931310849347E-03
(PID.TID 0000.0001) %MON dynstat_wvel_max             =   2.6970433472331E-04
(PID.TID 0000.0001) %MON dynstat_wvel_min             =  -2.9485410945906E-04
(PID.TID 0000.0001) %MON dynstat_wvel_mean            =  -1.3093590586495E-22
(PID.TID 0000.0001) %MON dynstat_wvel_sd              =   3.0762413502467E-05
(PID.TID 0000.0001) %MON dynstat_wvel_del2            =   1.2436682936625E-05
(PID.TID 0000.0001) %MON dynstat_theta_max            =   2.9571084088516E+01
(PID.TID 0000.0001) %MON dynstat_theta_min            =  -1.9457008204643E+00
(PID.TID 0000.0001) %MON dynstat_theta_mean           =   3.5938395068098E+00
(PID.TID 0000.0001) %MON dynstat_theta_sd             =   4.3479098282334E+00
(PID.TID 0000.0001) %MON dynstat_theta_del2           =   1.3341480171971E-01
(PID.TID 0000.0001) %MON dynstat_salt_max             =   3.7396296594560E+01
(PID.TID 0000.0001) %MON dynstat_salt_min             =   2.9806153482791E+01
(PID.TID 0000.0001) %MON dynstat_salt_mean            =   3.4716269785947E+01
(PID.TID 0000.0001) %MON dynstat_salt_sd              =   2.9401242788333E-01
(PID.TID 0000.0001) %MON dynstat_salt_del2            =   2.4874635029809E-02
(PID.TID 0000.0001) %MON advcfl_uvel_max              =   3.1442827008560E-02
(PID.TID 0000.0001) %MON advcfl_vvel_max              =   1.9713265137250E-02
(PID.TID 0000.0001) %MON advcfl_wvel_max              =   1.8629062585790E-01
(PID.TID 0000.0001) %MON advcfl_W_hf_max              =   1.6002804881533E-01
(PID.TID 0000.0001) %MON pe_b_mean                    =   2.0516004875887E-04
(PID.TID 0000.0001) %MON ke_max                       =   1.8302378426538E-02
(PID.TID 0000.0001) %MON ke_mean                      =   2.6303398317683E-04
(PID.TID 0000.0001) %MON ke_vol                       =   1.3226782436723E+18
(PID.TID 0000.0001) %MON vort_r_min                   =  -8.2866356375025E-07
(PID.TID 0000.0001) %MON vort_r_max                   =   6.6634668406058E-07
(PID.TID 0000.0001) %MON vort_a_mean                  =  -2.5205769106052E-05
(PID.TID 0000.0001) %MON vort_a_sd                    =   7.3402821463594E-05
(PID.TID 0000.0001) %MON vort_p_mean                  =  -3.1758669195368E-05
(PID.TID 0000.0001) %MON vort_p_sd                    =   1.3126284648422E-04
(PID.TID 0000.0001) %MON surfExpan_theta_mean         =   1.1087229003526E-05
(PID.TID 0000.0001) %MON surfExpan_salt_mean          =   2.0081154417573E-06
(PID.TID 0000.0001) // =======================================================
(PID.TID 0000.0001) // End MONITOR dynamic field statistics
(PID.TID 0000.0001) // =======================================================
time,SST,SSS,fu,fv,Q,E-P,i0,i1,a,b =   1.7712E+06  6.8521E-01  3.4661E+01 -3.1747E-02 -4.9993E-02  2.6113E+02  0.0000E+00     1     2  1.8333E-01  8.1667E-01
time,fu0,fu1,fu =   1.7712E+06 -3.5633E-02 -1.4435E-02 -3.1747E-02  1.8333E-01  8.1667E-01
 cg2d: Sum(rhs),rhsMax =   1.25913168780301E-13  8.14764728437086E+00
(PID.TID 0000.0001)                    cg2d_init_res =    7.01965871371134E-01
(PID.TID 0000.0001)                       cg2d_iters =    25
(PID.TID 0000.0001)                         cg2d_res =    4.30791716167028E-14
(PID.TID 0000.0001) // =======================================================
(PID.TID 0000.0001) // Begin MONITOR dynamic field statistics
(PID.TID 0000.0001) // =======================================================
(PID.TID 0000.0001) %MON time_tsnumber                =                    42
(PID.TID 0000.0001) %MON time_secondsf                =   1.8144000000000E+06
(PID.TID 0000.0001) %MON dynstat_eta_max              =   9.0613935414350E-01
(PID.TID 0000.0001) %MON dynstat_eta_min              =  -1.0864507088672E+00
(PID.TID 0000.0001) %MON dynstat_eta_mean             =  -2.1501562819459E-18
(PID.TID 0000.0001) %MON dynstat_eta_sd               =   4.0272821399120E-01
(PID.TID 0000.0001) %MON dynstat_eta_del2             =   1.8931124198710E-02
(PID.TID 0000.0001) %MON dynstat_uvel_max             =   1.9213235151368E-01
(PID.TID 0000.0001) %MON dynstat_uvel_min             =  -2.1685310687955E-01
(PID.TID 0000.0001) %MON dynstat_uvel_mean            =  -2.7786622838935E-03
(PID.TID 0000.0001) %MON dynstat_uvel_sd              =   1.7428044290248E-02
(PID.TID 0000.0001) %MON dynstat_uvel_del2            =   5.7156351680785E-03
(PID.TID 0000.0001) %MON dynstat_vvel_max             =   1.9793625341609E-01
(PID.TID 0000.0001) %MON dynstat_vvel_min             =  -1.5372757333398E-01
(PID.TID 0000.0001) %MON dynstat_vvel_mean            =   3.2628791041499E-03
(PID.TID 0000.0001) %MON dynstat_vvel_sd              =   1.5685211754310E-02
(PID.TID 0000.0001) %MON dynstat_vvel_del2            =   5.1820434204523E-03
(PID.TID 0000.0001) %MON dynstat_wvel_max             =   2.7663209463059E-04
(PID.TID 0000.0001) %MON dynstat_wvel_min             =  -2.8302407690708E-04
(PID.TID 0000.0001) %MON dynstat_wvel_mean            =  -2.0861444953080E-23
(PID.TID 0000.0001) %MON dynstat_wvel_sd              =   3.0621861080368E-05
(PID.TID 0000.0001) %MON dynstat_wvel_del2            =   1.2420625203918E-05
(PID.TID 0000.0001) %MON dynstat_theta_max            =   2.9581255584405E+01
(PID.TID 0000.0001) %MON dynstat_theta_min            =  -1.9448925468464E+00
(PID.TID 0000.0001) %MON dynstat_theta_mean           =   3.5937472204350E+00
(PID.TID 0000.0001) %MON dynstat_theta_sd             =   4.3478442858105E+00
(PID.TID 0000.0001) %MON dynstat_theta_del2           =   1.3331767560631E-01
(PID.TID 0000.0001) %MON dynstat_salt_max             =   3.7393988125024E+01
(PID.TID 0000.0001) %MON dynstat_salt_min             =   2.9806147010772E+01
(PID.TID 0000.0001) %MON dynstat_salt_mean            =   3.4716246820190E+01
(PID.TID 0000.0001) %MON dynstat_salt_sd              =   2.9394725502248E-01
(PID.TID 0000.0001) %MON dynstat_salt_del2            =   2.4841385482737E-02
(PID.TID 0000.0001) %MON advcfl_uvel_max              =   3.1126330464694E-02
(PID.TID 0000.0001) %MON advcfl_vvel_max              =   1.9227919761451E-02
(PID.TID 0000.0001) %MON advcfl_wvel_max              =   1.8859179487651E-01
(PID.TID 0000.0001) %MON advcfl_W_hf_max              =   1.5496855592232E-01
(PID.TID 0000.0001) %MON pe_b_mean                    =   2.0754167257540E-04
(PID.TID 0000.0001) %MON ke_max                       =   1.8267160313645E-02
(PID.TID 0000.0001) %MON ke_mean                      =   2.5673136724496E-04
(PID.TID 0000.0001) %MON ke_vol                       =   1.3226782436723E+18
(PID.TID 0000.0001) %MON vort_r_min                   =  -8.3285024784717E-07
(PID.TID 0000.0001) %MON vort_r_max                   =   6.7130206104796E-07
(PID.TID 0000.0001) %MON vort_a_mean                  =  -2.5205769065685E-05
(PID.TID 0000.0001) %MON vort_a_sd                    =   7.3402840268023E-05
(PID.TID 0000.0001) %MON vort_p_mean                  =  -3.1758669144507E-05
(PID.TID 0000.0001) %MON vort_p_sd                    =   1.3126291076866E-04
(PID.TID 0000.0001) %MON surfExpan_theta_mean         =   1.1881311065143E-05
(PID.TID 0000.0001) %MON surfExpan_salt_mean          =   2.0177235127243E-06
(PID.TID 0000.0001) // =======================================================
(PID.TID 0000.0001) // End MONITOR dynamic field statistics
(PID.TID 0000.0001) // =======================================================
time,SST,SSS,fu,fv,Q,E-P,i0,i1,a,b =   1.8144E+06  6.6037E-01  3.4656E+01 -3.1393E-02 -4.9332E-02  2.6071E+02  0.0000E+00     1     2  2.0000E-01  8.0000E-01
time,fu0,fu1,fu =   1.8144E+06 -3.5633E-02 -1.4435E-02 -3.1393E-02  2.0000E-01  8.0000E-01
 cg2d: Sum(rhs),rhsMax =   2.32799890476088E-13  7.68469224114803E+00
(PID.TID 0000.0001)                    cg2d_init_res =    7.41331515015152E-01
(PID.TID 0000.0001)                       cg2d_iters =    25
(PID.TID 0000.0001)                         cg2d_res =    4.26677644822580E-14
(PID.TID 0000.0001) // =======================================================
(PID.TID 0000.0001) // Begin MONITOR dynamic field statistics
(PID.TID 0000.0001) // =======================================================
(PID.TID 0000.0001) %MON time_tsnumber                =                    43
(PID.TID 0000.0001) %MON time_secondsf                =   1.8576000000000E+06
(PID.TID 0000.0001) %MON dynstat_eta_max              =   8.3355386955783E-01
(PID.TID 0000.0001) %MON dynstat_eta_min              =  -1.1081348342698E+00
(PID.TID 0000.0001) %MON dynstat_eta_mean             =  -1.0623964955157E-16
(PID.TID 0000.0001) %MON dynstat_eta_sd               =   4.0481491105572E-01
(PID.TID 0000.0001) %MON dynstat_eta_del2             =   1.9057909001554E-02
(PID.TID 0000.0001) %MON dynstat_uvel_max             =   1.8116952983428E-01
(PID.TID 0000.0001) %MON dynstat_uvel_min             =  -2.2182694322457E-01
(PID.TID 0000.0001) %MON dynstat_uvel_mean            =  -2.7224001844998E-03
(PID.TID 0000.0001) %MON dynstat_uvel_sd              =   1.7260601900665E-02
(PID.TID 0000.0001) %MON dynstat_uvel_del2            =   5.6914377735692E-03
(PID.TID 0000.0001) %MON dynstat_vvel_max             =   1.9116249236448E-01
(PID.TID 0000.0001) %MON dynstat_vvel_min             =  -1.5403098139282E-01
(PID.TID 0000.0001) %MON dynstat_vvel_mean            =   3.0456056350064E-03
(PID.TID 0000.0001) %MON dynstat_vvel_sd              =   1.5509448446128E-02
(PID.TID 0000.0001) %MON dynstat_vvel_del2            =   5.1714794006534E-03
(PID.TID 0000.0001) %MON dynstat_wvel_max             =   2.8286999896494E-04
(PID.TID 0000.0001) %MON dynstat_wvel_min             =  -2.7144059710851E-04
(PID.TID 0000.0001) %MON dynstat_wvel_mean            =   2.1039778408531E-22
(PID.TID 0000.0001) %MON dynstat_wvel_sd              =   3.0460066906739E-05
(PID.TID 0000.0001) %MON dynstat_wvel_del2            =   1.2390752214302E-05
(PID.TID 0000.0001) %MON dynstat_theta_max            =   2.9591806155506E+01
(PID.TID 0000.0001) %MON dynstat_theta_min            =  -1.9439601872765E+00
(PID.TID 0000.0001) %MON dynstat_theta_mean           =   3.5936509986719E+00
(PID.TID 0000.0001) %MON dynstat_theta_sd             =   4.3476943622669E+00
(PID.TID 0000.0001) %MON dynstat_theta_del2           =   1.3318239675001E-01
(PID.TID 0000.0001) %MON dynstat_salt_max             =   3.7391643341025E+01
(PID.TID 0000.0001) %MON dynstat_salt_min             =   2.9806047480809E+01
(PID.TID 0000.0001) %MON dynstat_salt_mean            =   3.4716225165202E+01
(PID.TID 0000.0001) %MON dynstat_salt_sd              =   2.9388585465084E-01
(PID.TID 0000.0001) %MON dynstat_salt_del2            =   2.4801572434359E-02
(PID.TID 0000.0001) %MON advcfl_uvel_max              =   3.0828093459563E-02
(PID.TID 0000.0001) %MON advcfl_vvel_max              =   1.8569903194319E-02
(PID.TID 0000.0001) %MON advcfl_wvel_max              =   1.8480874421871E-01
(PID.TID 0000.0001) %MON advcfl_W_hf_max              =   1.4555347734517E-01
(PID.TID 0000.0001) %MON pe_b_mean                    =   2.0969795840777E-04
(PID.TID 0000.0001) %MON ke_max                       =   1.8407427093896E-02
(PID.TID 0000.0001) %MON ke_mean                      =   2.5087507896103E-04
(PID.TID 0000.0001) %MON ke_vol                       =   1.3226782436723E+18
(PID.TID 0000.0001) %MON vort_r_min                   =  -8.3785623568007E-07
(PID.TID 0000.0001) %MON vort_r_max                   =   6.7477700916994E-07
(PID.TID 0000.0001) %MON vort_a_mean                  =  -2.5205769023347E-05
(PID.TID 0000.0001) %MON vort_a_sd                    =   7.3402856973527E-05
(PID.TID 0000.0001) %MON vort_p_mean                  =  -3.1758669091162E-05
(PID.TID 0000.0001) %MON vort_p_sd                    =   1.3126296905779E-04
(PID.TID 0000.0001) %MON surfExpan_theta_mean         =   1.2399317885422E-05
(PID.TID 0000.0001) %MON surfExpan_salt_mean          =   1.9506646228574E-06
(PID.TID 0000.0001) // =======================================================
(PID.TID 0000.0001) // End MONITOR dynamic field statistics
(PID.TID 0000.0001) // =======================================================
time,SST,SSS,fu,fv,Q,E-P,i0,i1,a,b =   1.8576E+06  6.3553E-01  3.4651E+01 -3.1040E-02 -4.8672E-02  2.6029E+02  0.0000E+00     1     2  2.1667E-01  7.8333E-01
time,fu0,fu1,fu =   1.8576E+06 -3.5633E-02 -1.4435E-02 -3.1040E-02  2.1667E-01  7.8333E-01
 cg2d: Sum(rhs),rhsMax =   5.20375409429619E-13  7.71510903416006E+00
(PID.TID 0000.0001)                    cg2d_init_res =    7.34299198038516E-01
(PID.TID 0000.0001)                       cg2d_iters =    25
(PID.TID 0000.0001)                         cg2d_res =    3.89604435203734E-14
(PID.TID 0000.0001) // =======================================================
(PID.TID 0000.0001) // Begin MONITOR dynamic field statistics
(PID.TID 0000.0001) // =======================================================
(PID.TID 0000.0001) %MON time_tsnumber                =                    44
(PID.TID 0000.0001) %MON time_secondsf                =   1.9008000000000E+06
(PID.TID 0000.0001) %MON dynstat_eta_max              =   8.9426613450753E-01
(PID.TID 0000.0001) %MON dynstat_eta_min              =  -1.1294868384890E+00
(PID.TID 0000.0001) %MON dynstat_eta_mean             =  -6.4140283882050E-17
(PID.TID 0000.0001) %MON dynstat_eta_sd               =   4.0665847831206E-01
(PID.TID 0000.0001) %MON dynstat_eta_del2             =   1.9164914923809E-02
(PID.TID 0000.0001) %MON dynstat_uvel_max             =   1.6697025608248E-01
(PID.TID 0000.0001) %MON dynstat_uvel_min             =  -2.2350757293509E-01
(PID.TID 0000.0001) %MON dynstat_uvel_mean            =  -2.6661720048974E-03
(PID.TID 0000.0001) %MON dynstat_uvel_sd              =   1.7122401771789E-02
(PID.TID 0000.0001) %MON dynstat_uvel_del2            =   5.6632063659683E-03
(PID.TID 0000.0001) %MON dynstat_vvel_max             =   1.8369155643810E-01
(PID.TID 0000.0001) %MON dynstat_vvel_min             =  -1.5364506536038E-01
(PID.TID 0000.0001) %MON dynstat_vvel_mean            =   2.7998959803075E-03
(PID.TID 0000.0001) %MON dynstat_vvel_sd              =   1.5334539482480E-02
(PID.TID 0000.0001) %MON dynstat_vvel_del2            =   5.1603271554151E-03
(PID.TID 0000.0001) %MON dynstat_wvel_max             =   2.8844918540244E-04
(PID.TID 0000.0001) %MON dynstat_wvel_min             =  -2.6024371470760E-04
(PID.TID 0000.0001) %MON dynstat_wvel_mean            =  -3.7371222530941E-22
(PID.TID 0000.0001) %MON dynstat_wvel_sd              =   3.0271513850529E-05
(PID.TID 0000.0001) %MON dynstat_wvel_del2            =   1.2348494641652E-05
(PID.TID 0000.0001) %MON dynstat_theta_max            =   2.9606631770517E+01
(PID.TID 0000.0001) %MON dynstat_theta_min            =  -1.9430441349730E+00
(PID.TID 0000.0001) %MON dynstat_theta_mean           =   3.5935535732062E+00
(PID.TID 0000.0001) %MON dynstat_theta_sd             =   4.3474705006234E+00
(PID.TID 0000.0001) %MON dynstat_theta_del2           =   1.3304902714783E-01
(PID.TID 0000.0001) %MON dynstat_salt_max             =   3.7389300454291E+01
(PID.TID 0000.0001) %MON dynstat_salt_min             =   2.9805858536414E+01
(PID.TID 0000.0001) %MON dynstat_salt_mean            =   3.4716205533665E+01
(PID.TID 0000.0001) %MON dynstat_salt_sd              =   2.9382881352791E-01
(PID.TID 0000.0001) %MON dynstat_salt_del2            =   2.4761131669885E-02
(PID.TID 0000.0001) %MON advcfl_uvel_max              =   3.0553748922129E-02
(PID.TID 0000.0001) %MON advcfl_vvel_max              =   1.7844161678775E-02
(PID.TID 0000.0001) %MON advcfl_wvel_max              =   1.7525686024564E-01
(PID.TID 0000.0001) %MON advcfl_W_hf_max              =   1.3805887811598E-01
(PID.TID 0000.0001) %MON pe_b_mean                    =   2.1161227810833E-04
(PID.TID 0000.0001) %MON ke_max                       =   1.8575046672548E-02
(PID.TID 0000.0001) %MON ke_mean                      =   2.4551182188947E-04
(PID.TID 0000.0001) %MON ke_vol                       =   1.3226782436723E+18
(PID.TID 0000.0001) %MON vort_r_min                   =  -8.6003589695665E-07
(PID.TID 0000.0001) %MON vort_r_max                   =   6.7634722291871E-07
(PID.TID 0000.0001) %MON vort_a_mean                  =  -2.5205768980248E-05
(PID.TID 0000.0001) %MON vort_a_sd                    =   7.3402872418192E-05
(PID.TID 0000.0001) %MON vort_p_mean                  =  -3.1758669036859E-05
(PID.TID 0000.0001) %MON vort_p_sd                    =   1.3126302225718E-04
(PID.TID 0000.0001) %MON surfExpan_theta_mean         =   1.2664551669797E-05
(PID.TID 0000.0001) %MON surfExpan_salt_mean          =   1.8150393281094E-06
(PID.TID 0000.0001) // =======================================================
(PID.TID 0000.0001) // End MONITOR dynamic field statistics
(PID.TID 0000.0001) // =======================================================
time,SST,SSS,fu,fv,Q,E-P,i0,i1,a,b =   1.9008E+06  6.1069E-01  3.4646E+01 -3.0687E-02 -4.8012E-02  2.5987E+02  0.0000E+00     1     2  2.3333E-01  7.6667E-01
time,fu0,fu1,fu =   1.9008E+06 -3.5633E-02 -1.4435E-02 -3.0687E-02  2.3333E-01  7.6667E-01
 cg2d: Sum(rhs),rhsMax =   1.06803454968940E-13  7.94458112934540E+00
(PID.TID 0000.0001)                    cg2d_init_res =    7.06079086246946E-01
(PID.TID 0000.0001)                       cg2d_iters =    25
(PID.TID 0000.0001)                         cg2d_res =    3.40411613292876E-14
(PID.TID 0000.0001) // =======================================================
(PID.TID 0000.0001) // Begin MONITOR dynamic field statistics
(PID.TID 0000.0001) // =======================================================
(PID.TID 0000.0001) %MON time_tsnumber                =                    45
(PID.TID 0000.0001) %MON time_secondsf                =   1.9440000000000E+06
(PID.TID 0000.0001) %MON dynstat_eta_max              =   9.6110825806619E-01
(PID.TID 0000.0001) %MON dynstat_eta_min              =  -1.1438713476141E+00
(PID.TID 0000.0001) %MON dynstat_eta_mean             =  -6.6833191553449E-17
(PID.TID 0000.0001) %MON dynstat_eta_sd               =   4.0825438433240E-01
(PID.TID 0000.0001) %MON dynstat_eta_del2             =   1.9223577127072E-02
(PID.TID 0000.0001) %MON dynstat_uvel_max             =   1.4986118774338E-01
(PID.TID 0000.0001) %MON dynstat_uvel_min             =  -2.2190072680180E-01
(PID.TID 0000.0001) %MON dynstat_uvel_mean            =  -2.6064969762432E-03
(PID.TID 0000.0001) %MON dynstat_uvel_sd              =   1.7010500119904E-02
(PID.TID 0000.0001) %MON dynstat_uvel_del2            =   5.6305605270984E-03
(PID.TID 0000.0001) %MON dynstat_vvel_max             =   1.7501479292932E-01
(PID.TID 0000.0001) %MON dynstat_vvel_min             =  -1.5257497975318E-01
(PID.TID 0000.0001) %MON dynstat_vvel_mean            =   2.5297671219130E-03
(PID.TID 0000.0001) %MON dynstat_vvel_sd              =   1.5166624153085E-02
(PID.TID 0000.0001) %MON dynstat_vvel_del2            =   5.1482177363821E-03
(PID.TID 0000.0001) %MON dynstat_wvel_max             =   2.9339932254952E-04
(PID.TID 0000.0001) %MON dynstat_wvel_min             =  -2.4954386048537E-04
(PID.TID 0000.0001) %MON dynstat_wvel_mean            =   2.6253046428595E-22
(PID.TID 0000.0001) %MON dynstat_wvel_sd              =   3.0053919799495E-05
(PID.TID 0000.0001) %MON dynstat_wvel_del2            =   1.2289106573193E-05
(PID.TID 0000.0001) %MON dynstat_theta_max            =   2.9620324184173E+01
(PID.TID 0000.0001) %MON dynstat_theta_min            =  -1.9423409108109E+00
(PID.TID 0000.0001) %MON dynstat_theta_mean           =   3.5934572254278E+00
(PID.TID 0000.0001) %MON dynstat_theta_sd             =   4.3471849648825E+00
(PID.TID 0000.0001) %MON dynstat_theta_del2           =   1.3294007373199E-01
(PID.TID 0000.0001) %MON dynstat_salt_max             =   3.7386927885662E+01
(PID.TID 0000.0001) %MON dynstat_salt_min             =   2.9805585665262E+01
(PID.TID 0000.0001) %MON dynstat_salt_mean            =   3.4716188501658E+01
(PID.TID 0000.0001) %MON dynstat_salt_sd              =   2.9377705111084E-01
(PID.TID 0000.0001) %MON dynstat_salt_del2            =   2.4728555002388E-02
(PID.TID 0000.0001) %MON advcfl_uvel_max              =   3.0307693231024E-02
(PID.TID 0000.0001) %MON advcfl_vvel_max              =   1.7001283683176E-02
(PID.TID 0000.0001) %MON advcfl_wvel_max              =   1.6044265884726E-01
(PID.TID 0000.0001) %MON advcfl_W_hf_max              =   1.2653243684064E-01
(PID.TID 0000.0001) %MON pe_b_mean                    =   2.1327645576178E-04
(PID.TID 0000.0001) %MON ke_max                       =   1.8718020293775E-02
(PID.TID 0000.0001) %MON ke_mean                      =   2.4068794457429E-04
(PID.TID 0000.0001) %MON ke_vol                       =   1.3226782436723E+18
(PID.TID 0000.0001) %MON vort_r_min                   =  -8.8170187425529E-07
(PID.TID 0000.0001) %MON vort_r_max                   =   6.7562802968424E-07
(PID.TID 0000.0001) %MON vort_a_mean                  =  -2.5205768937772E-05
(PID.TID 0000.0001) %MON vort_a_sd                    =   7.3402887357115E-05
(PID.TID 0000.0001) %MON vort_p_mean                  =  -3.1758668983340E-05
(PID.TID 0000.0001) %MON vort_p_sd                    =   1.3126307106249E-04
(PID.TID 0000.0001) %MON surfExpan_theta_mean         =   1.2709291788335E-05
(PID.TID 0000.0001) %MON surfExpan_salt_mean          =   1.6215736971664E-06
(PID.TID 0000.0001) // =======================================================
(PID.TID 0000.0001) // End MONITOR dynamic field statistics
(PID.TID 0000.0001) // =======================================================
time,SST,SSS,fu,fv,Q,E-P,i0,i1,a,b =   1.9440E+06  5.8585E-01  3.4641E+01 -3.0333E-02 -4.7351E-02  2.5945E+02  0.0000E+00     1     2  2.5000E-01  7.5000E-01
time,fu0,fu1,fu =   1.9440E+06 -3.5633E-02 -1.4435E-02 -3.0333E-02  2.5000E-01  7.5000E-01
 cg2d: Sum(rhs),rhsMax =   1.05027098129540E-13  8.35758900187429E+00
(PID.TID 0000.0001)                    cg2d_init_res =    6.60858919981182E-01
(PID.TID 0000.0001)                       cg2d_iters =    25
(PID.TID 0000.0001)                         cg2d_res =    2.85049749882541E-14
(PID.TID 0000.0001) // =======================================================
(PID.TID 0000.0001) // Begin MONITOR dynamic field statistics
(PID.TID 0000.0001) // =======================================================
(PID.TID 0000.0001) %MON time_tsnumber                =                    46
(PID.TID 0000.0001) %MON time_secondsf                =   1.9872000000000E+06
(PID.TID 0000.0001) %MON dynstat_eta_max              =   1.0102916750563E+00
(PID.TID 0000.0001) %MON dynstat_eta_min              =  -1.1578392006849E+00
(PID.TID 0000.0001) %MON dynstat_eta_mean             =   2.7390253713808E-16
(PID.TID 0000.0001) %MON dynstat_eta_sd               =   4.0960224880377E-01
(PID.TID 0000.0001) %MON dynstat_eta_del2             =   1.9276128545493E-02
(PID.TID 0000.0001) %MON dynstat_uvel_max             =   1.4410834239305E-01
(PID.TID 0000.0001) %MON dynstat_uvel_min             =  -2.1713287473052E-01
(PID.TID 0000.0001) %MON dynstat_uvel_mean            =  -2.5405784153494E-03
(PID.TID 0000.0001) %MON dynstat_uvel_sd              =   1.6921666796943E-02
(PID.TID 0000.0001) %MON dynstat_uvel_del2            =   5.5960000686728E-03
(PID.TID 0000.0001) %MON dynstat_vvel_max             =   1.7550481146277E-01
(PID.TID 0000.0001) %MON dynstat_vvel_min             =  -1.5083211078046E-01
(PID.TID 0000.0001) %MON dynstat_vvel_mean            =   2.2395098207891E-03
(PID.TID 0000.0001) %MON dynstat_vvel_sd              =   1.5012316225815E-02
(PID.TID 0000.0001) %MON dynstat_vvel_del2            =   5.1361358650326E-03
(PID.TID 0000.0001) %MON dynstat_wvel_max             =   2.9774759154448E-04
(PID.TID 0000.0001) %MON dynstat_wvel_min             =  -2.3942390198553E-04
(PID.TID 0000.0001) %MON dynstat_wvel_mean            =   1.4720964145097E-22
(PID.TID 0000.0001) %MON dynstat_wvel_sd              =   2.9809052172436E-05
(PID.TID 0000.0001) %MON dynstat_wvel_del2            =   1.2218095165204E-05
(PID.TID 0000.0001) %MON dynstat_theta_max            =   2.9632693655271E+01
(PID.TID 0000.0001) %MON dynstat_theta_min            =  -1.9410856516760E+00
(PID.TID 0000.0001) %MON dynstat_theta_mean           =   3.5933636329874E+00
(PID.TID 0000.0001) %MON dynstat_theta_sd             =   4.3468526788940E+00
(PID.TID 0000.0001) %MON dynstat_theta_del2           =   1.3282107056974E-01
(PID.TID 0000.0001) %MON dynstat_salt_max             =   3.7384525591173E+01
(PID.TID 0000.0001) %MON dynstat_salt_min             =   2.9805235607334E+01
(PID.TID 0000.0001) %MON dynstat_salt_mean            =   3.4716174483511E+01
(PID.TID 0000.0001) %MON dynstat_salt_sd              =   2.9373164655085E-01
(PID.TID 0000.0001) %MON dynstat_salt_del2            =   2.4687485162992E-02
(PID.TID 0000.0001) %MON advcfl_uvel_max              =   3.0093113492178E-02
(PID.TID 0000.0001) %MON advcfl_vvel_max              =   1.7048885054224E-02
(PID.TID 0000.0001) %MON advcfl_wvel_max              =   1.4103776751674E-01
(PID.TID 0000.0001) %MON advcfl_W_hf_max              =   1.3058797453262E-01
(PID.TID 0000.0001) %MON pe_b_mean                    =   2.1468705812244E-04
(PID.TID 0000.0001) %MON ke_max                       =   1.8837121046379E-02
(PID.TID 0000.0001) %MON ke_mean                      =   2.3645221083745E-04
(PID.TID 0000.0001) %MON ke_vol                       =   1.3226782436723E+18
(PID.TID 0000.0001) %MON vort_r_min                   =  -9.0277058424845E-07
(PID.TID 0000.0001) %MON vort_r_max                   =   6.7228493037962E-07
(PID.TID 0000.0001) %MON vort_a_mean                  =  -2.5205768896861E-05
(PID.TID 0000.0001) %MON vort_a_sd                    =   7.3402902445710E-05
(PID.TID 0000.0001) %MON vort_p_mean                  =  -3.1758668931793E-05
(PID.TID 0000.0001) %MON vort_p_sd                    =   1.3126311598243E-04
(PID.TID 0000.0001) %MON surfExpan_theta_mean         =   1.2574822257947E-05
(PID.TID 0000.0001) %MON surfExpan_salt_mean          =   1.3827389482844E-06
(PID.TID 0000.0001) // =======================================================
(PID.TID 0000.0001) // End MONITOR dynamic field statistics
(PID.TID 0000.0001) // =======================================================
time,SST,SSS,fu,fv,Q,E-P,i0,i1,a,b =   1.9872E+06  5.6102E-01  3.4636E+01 -2.9980E-02 -4.6691E-02  2.5903E+02  0.0000E+00     1     2  2.6667E-01  7.3333E-01
time,fu0,fu1,fu =   1.9872E+06 -3.5633E-02 -1.4435E-02 -2.9980E-02  2.6667E-01  7.3333E-01
 cg2d: Sum(rhs),rhsMax =   1.72487024663326E-13  8.64096094300912E+00
(PID.TID 0000.0001)                    cg2d_init_res =    6.25864994613267E-01
(PID.TID 0000.0001)                       cg2d_iters =    24
(PID.TID 0000.0001)                         cg2d_res =    9.94423748225534E-14
(PID.TID 0000.0001) // =======================================================
(PID.TID 0000.0001) // Begin MONITOR dynamic field statistics
(PID.TID 0000.0001) // =======================================================
(PID.TID 0000.0001) %MON time_tsnumber                =                    47
(PID.TID 0000.0001) %MON time_secondsf                =   2.0304000000000E+06
(PID.TID 0000.0001) %MON dynstat_eta_max              =   1.0510920923741E+00
(PID.TID 0000.0001) %MON dynstat_eta_min              =  -1.1714910695497E+00
(PID.TID 0000.0001) %MON dynstat_eta_mean             =   1.9613974060948E-16
(PID.TID 0000.0001) %MON dynstat_eta_sd               =   4.1070471421287E-01
(PID.TID 0000.0001) %MON dynstat_eta_del2             =   1.9329020083686E-02
(PID.TID 0000.0001) %MON dynstat_uvel_max             =   1.4349283623592E-01
(PID.TID 0000.0001) %MON dynstat_uvel_min             =  -2.0943766378580E-01
(PID.TID 0000.0001) %MON dynstat_uvel_mean            =  -2.4663452001324E-03
(PID.TID 0000.0001) %MON dynstat_uvel_sd              =   1.6852877735544E-02
(PID.TID 0000.0001) %MON dynstat_uvel_del2            =   5.5596522177242E-03
(PID.TID 0000.0001) %MON dynstat_vvel_max             =   1.7553918951083E-01
(PID.TID 0000.0001) %MON dynstat_vvel_min             =  -1.4843494379782E-01
(PID.TID 0000.0001) %MON dynstat_vvel_mean            =   1.9335813519315E-03
(PID.TID 0000.0001) %MON dynstat_vvel_sd              =   1.4878205283152E-02
(PID.TID 0000.0001) %MON dynstat_vvel_del2            =   5.1267103411828E-03
(PID.TID 0000.0001) %MON dynstat_wvel_max             =   3.0151804303062E-04
(PID.TID 0000.0001) %MON dynstat_wvel_min             =  -2.3771512789104E-04
(PID.TID 0000.0001) %MON dynstat_wvel_mean            =   9.8633225866491E-23
(PID.TID 0000.0001) %MON dynstat_wvel_sd              =   2.9542380440625E-05
(PID.TID 0000.0001) %MON dynstat_wvel_del2            =   1.2135477840760E-05
(PID.TID 0000.0001) %MON dynstat_theta_max            =   2.9643629920176E+01
(PID.TID 0000.0001) %MON dynstat_theta_min            =  -1.9405386874497E+00
(PID.TID 0000.0001) %MON dynstat_theta_mean           =   3.5932741298333E+00
(PID.TID 0000.0001) %MON dynstat_theta_sd             =   4.3464857203983E+00
(PID.TID 0000.0001) %MON dynstat_theta_del2           =   1.3275568753139E-01
(PID.TID 0000.0001) %MON dynstat_salt_max             =   3.7382093444655E+01
(PID.TID 0000.0001) %MON dynstat_salt_min             =   2.9804815737612E+01
(PID.TID 0000.0001) %MON dynstat_salt_mean            =   3.4716163740730E+01
(PID.TID 0000.0001) %MON dynstat_salt_sd              =   2.9369287820693E-01
(PID.TID 0000.0001) %MON dynstat_salt_del2            =   2.4648340844707E-02
(PID.TID 0000.0001) %MON advcfl_uvel_max              =   2.9912116487619E-02
(PID.TID 0000.0001) %MON advcfl_vvel_max              =   1.7052224605914E-02
(PID.TID 0000.0001) %MON advcfl_wvel_max              =   1.3441811015019E-01
(PID.TID 0000.0001) %MON advcfl_W_hf_max              =   1.3454681117243E-01
(PID.TID 0000.0001) %MON pe_b_mean                    =   2.1584429581350E-04
(PID.TID 0000.0001) %MON ke_max                       =   1.8932967943679E-02
(PID.TID 0000.0001) %MON ke_mean                      =   2.3285502298839E-04
(PID.TID 0000.0001) %MON ke_vol                       =   1.3226782436723E+18
(PID.TID 0000.0001) %MON vort_r_min                   =  -9.2315355074395E-07
(PID.TID 0000.0001) %MON vort_r_max                   =   6.6604283744456E-07
(PID.TID 0000.0001) %MON vort_a_mean                  =  -2.5205768858192E-05
(PID.TID 0000.0001) %MON vort_a_sd                    =   7.3402918220519E-05
(PID.TID 0000.0001) %MON vort_p_mean                  =  -3.1758668883071E-05
(PID.TID 0000.0001) %MON vort_p_sd                    =   1.3126315724787E-04
(PID.TID 0000.0001) %MON surfExpan_theta_mean         =   1.2303419053961E-05
(PID.TID 0000.0001) %MON surfExpan_salt_mean          =   1.1122417502647E-06
(PID.TID 0000.0001) // =======================================================
(PID.TID 0000.0001) // End MONITOR dynamic field statistics
(PID.TID 0000.0001) // =======================================================
time,SST,SSS,fu,fv,Q,E-P,i0,i1,a,b =   2.0304E+06  5.3618E-01  3.4631E+01 -2.9627E-02 -4.6031E-02  2.5861E+02  0.0000E+00     1     2  2.8333E-01  7.1667E-01
time,fu0,fu1,fu =   2.0304E+06 -3.5633E-02 -1.4435E-02 -2.9627E-02  2.8333E-01  7.1667E-01
 cg2d: Sum(rhs),rhsMax =   4.99600361081320E-16  8.90282405763251E+00
(PID.TID 0000.0001)                    cg2d_init_res =    5.92306208760311E-01
(PID.TID 0000.0001)                       cg2d_iters =    24
(PID.TID 0000.0001)                         cg2d_res =    8.09487609757162E-14
(PID.TID 0000.0001) // =======================================================
(PID.TID 0000.0001) // Begin MONITOR dynamic field statistics
(PID.TID 0000.0001) // =======================================================
(PID.TID 0000.0001) %MON time_tsnumber                =                    48
(PID.TID 0000.0001) %MON time_secondsf                =   2.0736000000000E+06
(PID.TID 0000.0001) %MON dynstat_eta_max              =   1.0809486872733E+00
(PID.TID 0000.0001) %MON dynstat_eta_min              =  -1.1761447342693E+00
(PID.TID 0000.0001) %MON dynstat_eta_mean             =   1.0579848094712E-16
(PID.TID 0000.0001) %MON dynstat_eta_sd               =   4.1156857045634E-01
(PID.TID 0000.0001) %MON dynstat_eta_del2             =   1.9406437506488E-02
(PID.TID 0000.0001) %MON dynstat_uvel_max             =   1.4243589311593E-01
(PID.TID 0000.0001) %MON dynstat_uvel_min             =  -1.9913988876119E-01
(PID.TID 0000.0001) %MON dynstat_uvel_mean            =  -2.3824281785425E-03
(PID.TID 0000.0001) %MON dynstat_uvel_sd              =   1.6801672521341E-02
(PID.TID 0000.0001) %MON dynstat_uvel_del2            =   5.5242549157682E-03
(PID.TID 0000.0001) %MON dynstat_vvel_max             =   1.7483126264925E-01
(PID.TID 0000.0001) %MON dynstat_vvel_min             =  -1.4739229882615E-01
(PID.TID 0000.0001) %MON dynstat_vvel_mean            =   1.6164918168398E-03
(PID.TID 0000.0001) %MON dynstat_vvel_sd              =   1.4770217346784E-02
(PID.TID 0000.0001) %MON dynstat_vvel_del2            =   5.1170471703578E-03
(PID.TID 0000.0001) %MON dynstat_wvel_max             =   3.0473165443259E-04
(PID.TID 0000.0001) %MON dynstat_wvel_min             =  -2.3865733724687E-04
(PID.TID 0000.0001) %MON dynstat_wvel_mean            =   3.2339475952216E-22
(PID.TID 0000.0001) %MON dynstat_wvel_sd              =   2.9262450642982E-05
(PID.TID 0000.0001) %MON dynstat_wvel_del2            =   1.2050583755495E-05
(PID.TID 0000.0001) %MON dynstat_theta_max            =   2.9654565615171E+01
(PID.TID 0000.0001) %MON dynstat_theta_min            =  -1.9414884310116E+00
(PID.TID 0000.0001) %MON dynstat_theta_mean           =   3.5931894368188E+00
(PID.TID 0000.0001) %MON dynstat_theta_sd             =   4.3460982252505E+00
(PID.TID 0000.0001) %MON dynstat_theta_del2           =   1.3261785822400E-01
(PID.TID 0000.0001) %MON dynstat_salt_max             =   3.7379632325330E+01
(PID.TID 0000.0001) %MON dynstat_salt_min             =   2.9804333463836E+01
(PID.TID 0000.0001) %MON dynstat_salt_mean            =   3.4716156365132E+01
(PID.TID 0000.0001) %MON dynstat_salt_sd              =   2.9366133851282E-01
(PID.TID 0000.0001) %MON dynstat_salt_del2            =   2.4603129013615E-02
(PID.TID 0000.0001) %MON advcfl_uvel_max              =   2.9765810490828E-02
(PID.TID 0000.0001) %MON advcfl_vvel_max              =   1.6983455188202E-02
(PID.TID 0000.0001) %MON advcfl_wvel_max              =   1.3750139431793E-01
(PID.TID 0000.0001) %MON advcfl_W_hf_max              =   1.3667425780380E-01
(PID.TID 0000.0001) %MON pe_b_mean                    =   2.1675324343397E-04
(PID.TID 0000.0001) %MON ke_max                       =   1.9005994999444E-02
(PID.TID 0000.0001) %MON ke_mean                      =   2.2994450560167E-04
(PID.TID 0000.0001) %MON ke_vol                       =   1.3226782436723E+18
(PID.TID 0000.0001) %MON vort_r_min                   =  -9.4276352603195E-07
(PID.TID 0000.0001) %MON vort_r_max                   =   6.5669473381589E-07
(PID.TID 0000.0001) %MON vort_a_mean                  =  -2.5205768822151E-05
(PID.TID 0000.0001) %MON vort_a_sd                    =   7.3402935093310E-05
(PID.TID 0000.0001) %MON vort_p_mean                  =  -3.1758668837660E-05
(PID.TID 0000.0001) %MON vort_p_sd                    =   1.3126319498769E-04
(PID.TID 0000.0001) %MON surfExpan_theta_mean         =   1.1938475050341E-05
(PID.TID 0000.0001) %MON surfExpan_salt_mean          =   8.2460185507420E-07
(PID.TID 0000.0001) // =======================================================
(PID.TID 0000.0001) // End MONITOR dynamic field statistics
(PID.TID 0000.0001) // =======================================================
time,SST,SSS,fu,fv,Q,E-P,i0,i1,a,b =   2.0736E+06  5.1134E-01  3.4627E+01 -2.9273E-02 -4.5370E-02  2.5818E+02  0.0000E+00     1     2  3.0000E-01  7.0000E-01
time,fu0,fu1,fu =   2.0736E+06 -3.5633E-02 -1.4435E-02 -2.9273E-02  3.0000E-01  7.0000E-01
 cg2d: Sum(rhs),rhsMax =  -1.21083698623181E-13  8.99099015697687E+00
(PID.TID 0000.0001)                    cg2d_init_res =    5.70825607217177E-01
(PID.TID 0000.0001)                       cg2d_iters =    24
(PID.TID 0000.0001)                         cg2d_res =    8.02879995525465E-14
(PID.TID 0000.0001) // =======================================================
(PID.TID 0000.0001) // Begin MONITOR dynamic field statistics
(PID.TID 0000.0001) // =======================================================
(PID.TID 0000.0001) %MON time_tsnumber                =                    49
(PID.TID 0000.0001) %MON time_secondsf                =   2.1168000000000E+06
(PID.TID 0000.0001) %MON dynstat_eta_max              =   1.0898131518405E+00
(PID.TID 0000.0001) %MON dynstat_eta_min              =  -1.1725936578784E+00
(PID.TID 0000.0001) %MON dynstat_eta_mean             =   2.6953522360383E-17
(PID.TID 0000.0001) %MON dynstat_eta_sd               =   4.1220727516437E-01
(PID.TID 0000.0001) %MON dynstat_eta_del2             =   1.9438798965998E-02
(PID.TID 0000.0001) %MON dynstat_uvel_max             =   1.4134065977041E-01
(PID.TID 0000.0001) %MON dynstat_uvel_min             =  -1.9929452505635E-01
(PID.TID 0000.0001) %MON dynstat_uvel_mean            =  -2.2881403297647E-03
(PID.TID 0000.0001) %MON dynstat_uvel_sd              =   1.6766412428571E-02
(PID.TID 0000.0001) %MON dynstat_uvel_del2            =   5.4896024935166E-03
(PID.TID 0000.0001) %MON dynstat_vvel_max             =   1.7342956481528E-01
(PID.TID 0000.0001) %MON dynstat_vvel_min             =  -1.4584799016916E-01
(PID.TID 0000.0001) %MON dynstat_vvel_mean            =   1.2927115344705E-03
(PID.TID 0000.0001) %MON dynstat_vvel_sd              =   1.4692857878484E-02
(PID.TID 0000.0001) %MON dynstat_vvel_del2            =   5.1036007955369E-03
(PID.TID 0000.0001) %MON dynstat_wvel_max             =   3.0740730815150E-04
(PID.TID 0000.0001) %MON dynstat_wvel_min             =  -2.3854989778479E-04
(PID.TID 0000.0001) %MON dynstat_wvel_mean            =   4.6784053536470E-22
(PID.TID 0000.0001) %MON dynstat_wvel_sd              =   2.8979463940638E-05
(PID.TID 0000.0001) %MON dynstat_wvel_del2            =   1.1961391442082E-05
(PID.TID 0000.0001) %MON dynstat_theta_max            =   2.9664417198354E+01
(PID.TID 0000.0001) %MON dynstat_theta_min            =  -1.9438856076458E+00
(PID.TID 0000.0001) %MON dynstat_theta_mean           =   3.5931098539275E+00
(PID.TID 0000.0001) %MON dynstat_theta_sd             =   4.3457010925153E+00
(PID.TID 0000.0001) %MON dynstat_theta_del2           =   1.3249715860434E-01
(PID.TID 0000.0001) %MON dynstat_salt_max             =   3.7380739298274E+01
(PID.TID 0000.0001) %MON dynstat_salt_min             =   2.9803795676130E+01
(PID.TID 0000.0001) %MON dynstat_salt_mean            =   3.4716152283647E+01
(PID.TID 0000.0001) %MON dynstat_salt_sd              =   2.9363748509530E-01
(PID.TID 0000.0001) %MON dynstat_salt_del2            =   2.4555515674064E-02
(PID.TID 0000.0001) %MON advcfl_uvel_max              =   2.9665400124216E-02
(PID.TID 0000.0001) %MON advcfl_vvel_max              =   1.6847291483898E-02
(PID.TID 0000.0001) %MON advcfl_wvel_max              =   1.3867240926855E-01
(PID.TID 0000.0001) %MON advcfl_W_hf_max              =   1.3689136137296E-01
(PID.TID 0000.0001) %MON pe_b_mean                    =   2.1742651515153E-04
(PID.TID 0000.0001) %MON ke_max                       =   1.9056467144341E-02
(PID.TID 0000.0001) %MON ke_mean                      =   2.2776056797709E-04
(PID.TID 0000.0001) %MON ke_vol                       =   1.3226782436723E+18
(PID.TID 0000.0001) %MON vort_r_min                   =  -9.6151736307550E-07
(PID.TID 0000.0001) %MON vort_r_max                   =   6.4410938112386E-07
(PID.TID 0000.0001) %MON vort_a_mean                  =  -2.5205768788933E-05
(PID.TID 0000.0001) %MON vort_a_sd                    =   7.3402953345748E-05
(PID.TID 0000.0001) %MON vort_p_mean                  =  -3.1758668795807E-05
(PID.TID 0000.0001) %MON vort_p_sd                    =   1.3126322893364E-04
(PID.TID 0000.0001) %MON surfExpan_theta_mean         =   1.1520168991749E-05
(PID.TID 0000.0001) %MON surfExpan_salt_mean          =   5.3401270652088E-07
(PID.TID 0000.0001) // =======================================================
(PID.TID 0000.0001) // End MONITOR dynamic field statistics
(PID.TID 0000.0001) // =======================================================
time,SST,SSS,fu,fv,Q,E-P,i0,i1,a,b =   2.1168E+06  4.8650E-01  3.4622E+01 -2.8920E-02 -4.4710E-02  2.5776E+02  0.0000E+00     1     2  3.1667E-01  6.8333E-01
time,fu0,fu1,fu =   2.1168E+06 -3.5633E-02 -1.4435E-02 -2.8920E-02  3.1667E-01  6.8333E-01
 cg2d: Sum(rhs),rhsMax =  -4.98490138056695E-14  8.89940296441093E+00
(PID.TID 0000.0001)                    cg2d_init_res =    5.61903458604112E-01
(PID.TID 0000.0001)                       cg2d_iters =    24
(PID.TID 0000.0001)                         cg2d_res =    7.77826098544835E-14
(PID.TID 0000.0001) // =======================================================
(PID.TID 0000.0001) // Begin MONITOR dynamic field statistics
(PID.TID 0000.0001) // =======================================================
(PID.TID 0000.0001) %MON time_tsnumber                =                    50
(PID.TID 0000.0001) %MON time_secondsf                =   2.1600000000000E+06
(PID.TID 0000.0001) %MON dynstat_eta_max              =   1.0770007278258E+00
(PID.TID 0000.0001) %MON dynstat_eta_min              =  -1.1620166509639E+00
(PID.TID 0000.0001) %MON dynstat_eta_mean             =   2.5685266264399E-16
(PID.TID 0000.0001) %MON dynstat_eta_sd               =   4.1264388243666E-01
(PID.TID 0000.0001) %MON dynstat_eta_del2             =   1.9452215408208E-02
(PID.TID 0000.0001) %MON dynstat_uvel_max             =   1.4042026470862E-01
(PID.TID 0000.0001) %MON dynstat_uvel_min             =  -1.9972327269218E-01
(PID.TID 0000.0001) %MON dynstat_uvel_mean            =  -2.1834093005110E-03
(PID.TID 0000.0001) %MON dynstat_uvel_sd              =   1.6746396667267E-02
(PID.TID 0000.0001) %MON dynstat_uvel_del2            =   5.4566296494590E-03
(PID.TID 0000.0001) %MON dynstat_vvel_max             =   1.7139647785859E-01
(PID.TID 0000.0001) %MON dynstat_vvel_min             =  -1.4380564033188E-01
(PID.TID 0000.0001) %MON dynstat_vvel_mean            =   9.6659396453498E-04
(PID.TID 0000.0001) %MON dynstat_vvel_sd              =   1.4648533594563E-02
(PID.TID 0000.0001) %MON dynstat_vvel_del2            =   5.0892566478054E-03
(PID.TID 0000.0001) %MON dynstat_wvel_max             =   3.0956277465557E-04
(PID.TID 0000.0001) %MON dynstat_wvel_min             =  -2.3696324736366E-04
(PID.TID 0000.0001) %MON dynstat_wvel_mean            =  -1.2481665851014E-22
(PID.TID 0000.0001) %MON dynstat_wvel_sd              =   2.8703440309465E-05
(PID.TID 0000.0001) %MON dynstat_wvel_del2            =   1.1867239543258E-05
(PID.TID 0000.0001) %MON dynstat_theta_max            =   2.9672787433572E+01
(PID.TID 0000.0001) %MON dynstat_theta_min            =  -1.9460975040482E+00
(PID.TID 0000.0001) %MON dynstat_theta_mean           =   3.5930352758393E+00
(PID.TID 0000.0001) %MON dynstat_theta_sd             =   4.3453037736779E+00
(PID.TID 0000.0001) %MON dynstat_theta_del2           =   1.3236664215814E-01
(PID.TID 0000.0001) %MON dynstat_salt_max             =   3.7381877501186E+01
(PID.TID 0000.0001) %MON dynstat_salt_min             =   2.9803208279501E+01
(PID.TID 0000.0001) %MON dynstat_salt_mean            =   3.4716151280860E+01
(PID.TID 0000.0001) %MON dynstat_salt_sd              =   2.9362141172798E-01
(PID.TID 0000.0001) %MON dynstat_salt_del2            =   2.4507571016049E-02
(PID.TID 0000.0001) %MON advcfl_uvel_max              =   3.0094636533013E-02
(PID.TID 0000.0001) %MON advcfl_vvel_max              =   1.6649793389452E-02
(PID.TID 0000.0001) %MON advcfl_wvel_max              =   1.4169798477616E-01
(PID.TID 0000.0001) %MON advcfl_W_hf_max              =   1.3512911633850E-01
(PID.TID 0000.0001) %MON pe_b_mean                    =   2.1788735258961E-04
(PID.TID 0000.0001) %MON ke_max                       =   1.9084532078506E-02
(PID.TID 0000.0001) %MON ke_mean                      =   2.2632841098766E-04
(PID.TID 0000.0001) %MON ke_vol                       =   1.3226782436723E+18
(PID.TID 0000.0001) %MON vort_r_min                   =  -9.7933931773307E-07
(PID.TID 0000.0001) %MON vort_r_max                   =   6.2823765817745E-07
(PID.TID 0000.0001) %MON vort_a_mean                  =  -2.5205768758518E-05
(PID.TID 0000.0001) %MON vort_a_sd                    =   7.3402973135484E-05
(PID.TID 0000.0001) %MON vort_p_mean                  =  -3.1758668757484E-05
(PID.TID 0000.0001) %MON vort_p_sd                    =   1.3126325882779E-04
(PID.TID 0000.0001) %MON surfExpan_theta_mean         =   1.1086224221789E-05
(PID.TID 0000.0001) %MON surfExpan_salt_mean          =   2.5426754041934E-07
(PID.TID 0000.0001) // =======================================================
(PID.TID 0000.0001) // End MONITOR dynamic field statistics
(PID.TID 0000.0001) // =======================================================
time,SST,SSS,fu,fv,Q,E-P,i0,i1,a,b =   2.1600E+06  4.6166E-01  3.4617E+01 -2.8567E-02 -4.4050E-02  2.5734E+02  0.0000E+00     1     2  3.3333E-01  6.6667E-01
time,fu0,fu1,fu =   2.1600E+06 -3.5633E-02 -1.4435E-02 -2.8567E-02  3.3333E-01  6.6667E-01
 cg2d: Sum(rhs),rhsMax =   2.77056155795208E-13  8.62674623420906E+00
(PID.TID 0000.0001)                    cg2d_init_res =    5.66984018131446E-01
(PID.TID 0000.0001)                       cg2d_iters =    24
(PID.TID 0000.0001)                         cg2d_res =    6.33970268561586E-14
(PID.TID 0000.0001) // =======================================================
(PID.TID 0000.0001) // Begin MONITOR dynamic field statistics
(PID.TID 0000.0001) // =======================================================
(PID.TID 0000.0001) %MON time_tsnumber                =                    51
(PID.TID 0000.0001) %MON time_secondsf                =   2.2032000000000E+06
(PID.TID 0000.0001) %MON dynstat_eta_max              =   1.0424026037646E+00
(PID.TID 0000.0001) %MON dynstat_eta_min              =  -1.1458619894744E+00
(PID.TID 0000.0001) %MON dynstat_eta_mean             =  -1.5310271028236E-17
(PID.TID 0000.0001) %MON dynstat_eta_sd               =   4.1291306155400E-01
(PID.TID 0000.0001) %MON dynstat_eta_del2             =   1.9387603737451E-02
(PID.TID 0000.0001) %MON dynstat_uvel_max             =   1.3765684904052E-01
(PID.TID 0000.0001) %MON dynstat_uvel_min             =  -1.9989897711608E-01
(PID.TID 0000.0001) %MON dynstat_uvel_mean            =  -2.0686933749050E-03
(PID.TID 0000.0001) %MON dynstat_uvel_sd              =   1.6741849094388E-02
(PID.TID 0000.0001) %MON dynstat_uvel_del2            =   5.4264223604022E-03
(PID.TID 0000.0001) %MON dynstat_vvel_max             =   1.6880503666804E-01
(PID.TID 0000.0001) %MON dynstat_vvel_min             =  -1.4138741507888E-01
(PID.TID 0000.0001) %MON dynstat_vvel_mean            =   6.4230362706116E-04
(PID.TID 0000.0001) %MON dynstat_vvel_sd              =   1.4637104472328E-02
(PID.TID 0000.0001) %MON dynstat_vvel_del2            =   5.0719144347135E-03
(PID.TID 0000.0001) %MON dynstat_wvel_max             =   3.1121533484202E-04
(PID.TID 0000.0001) %MON dynstat_wvel_min             =  -2.3393518225792E-04
(PID.TID 0000.0001) %MON dynstat_wvel_mean            =   1.8785810787499E-22
(PID.TID 0000.0001) %MON dynstat_wvel_sd              =   2.8442608835209E-05
(PID.TID 0000.0001) %MON dynstat_wvel_del2            =   1.1765906296159E-05
(PID.TID 0000.0001) %MON dynstat_theta_max            =   2.9679741847141E+01
(PID.TID 0000.0001) %MON dynstat_theta_min            =  -1.9481357225733E+00
(PID.TID 0000.0001) %MON dynstat_theta_mean           =   3.5929652469181E+00
(PID.TID 0000.0001) %MON dynstat_theta_sd             =   4.3449140391311E+00
(PID.TID 0000.0001) %MON dynstat_theta_del2           =   1.3223652803611E-01
(PID.TID 0000.0001) %MON dynstat_salt_max             =   3.7382968851845E+01
(PID.TID 0000.0001) %MON dynstat_salt_min             =   2.9802575832807E+01
(PID.TID 0000.0001) %MON dynstat_salt_mean            =   3.4716153007714E+01
(PID.TID 0000.0001) %MON dynstat_salt_sd              =   2.9361320266750E-01
(PID.TID 0000.0001) %MON dynstat_salt_del2            =   2.4457712067352E-02
(PID.TID 0000.0001) %MON advcfl_uvel_max              =   3.0493082390433E-02
(PID.TID 0000.0001) %MON advcfl_vvel_max              =   1.6398055658651E-02
(PID.TID 0000.0001) %MON advcfl_wvel_max              =   1.6220526011273E-01
(PID.TID 0000.0001) %MON advcfl_W_hf_max              =   1.3133197990304E-01
(PID.TID 0000.0001) %MON pe_b_mean                    =   2.1817171330595E-04
(PID.TID 0000.0001) %MON ke_max                       =   1.9090293280253E-02
(PID.TID 0000.0001) %MON ke_mean                      =   2.2565311359420E-04
(PID.TID 0000.0001) %MON ke_vol                       =   1.3226782436723E+18
(PID.TID 0000.0001) %MON vort_r_min                   =  -9.9616247593518E-07
(PID.TID 0000.0001) %MON vort_r_max                   =   6.3509426998582E-07
(PID.TID 0000.0001) %MON vort_a_mean                  =  -2.5205768730553E-05
(PID.TID 0000.0001) %MON vort_a_sd                    =   7.3402994507623E-05
(PID.TID 0000.0001) %MON vort_p_mean                  =  -3.1758668722248E-05
(PID.TID 0000.0001) %MON vort_p_sd                    =   1.3126328429523E-04
(PID.TID 0000.0001) %MON surfExpan_theta_mean         =   1.0670958410537E-05
(PID.TID 0000.0001) %MON surfExpan_salt_mean          =  -1.9667568628904E-09
(PID.TID 0000.0001) // =======================================================
(PID.TID 0000.0001) // End MONITOR dynamic field statistics
(PID.TID 0000.0001) // =======================================================
time,SST,SSS,fu,fv,Q,E-P,i0,i1,a,b =   2.2032E+06  4.3683E-01  3.4612E+01 -2.8214E-02 -4.3389E-02  2.5692E+02  0.0000E+00     1     2  3.5000E-01  6.5000E-01
time,fu0,fu1,fu =   2.2032E+06 -3.5633E-02 -1.4435E-02 -2.8214E-02  3.5000E-01  6.5000E-01
 cg2d: Sum(rhs),rhsMax =   8.36553049055055E-14  8.17661271892785E+00
(PID.TID 0000.0001)                    cg2d_init_res =    5.88477115058312E-01
(PID.TID 0000.0001)                       cg2d_iters =    24
(PID.TID 0000.0001)                         cg2d_res =    8.73181168908210E-14
(PID.TID 0000.0001) // =======================================================
(PID.TID 0000.0001) // Begin MONITOR dynamic field statistics
(PID.TID 0000.0001) // =======================================================
(PID.TID 0000.0001) %MON time_tsnumber                =                    52
(PID.TID 0000.0001) %MON time_secondsf                =   2.2464000000000E+06
(PID.TID 0000.0001) %MON dynstat_eta_max              =   9.8650483589698E-01
(PID.TID 0000.0001) %MON dynstat_eta_min              =  -1.1257343891707E+00
(PID.TID 0000.0001) %MON dynstat_eta_mean             =  -7.6136701564447E-17
(PID.TID 0000.0001) %MON dynstat_eta_sd               =   4.1306136212942E-01
(PID.TID 0000.0001) %MON dynstat_eta_del2             =   1.9329290000802E-02
(PID.TID 0000.0001) %MON dynstat_uvel_max             =   1.3501294482294E-01
(PID.TID 0000.0001) %MON dynstat_uvel_min             =  -1.9982317554894E-01
(PID.TID 0000.0001) %MON dynstat_uvel_mean            =  -1.9448913434081E-03
(PID.TID 0000.0001) %MON dynstat_uvel_sd              =   1.6753784968827E-02
(PID.TID 0000.0001) %MON dynstat_uvel_del2            =   5.3967463393462E-03
(PID.TID 0000.0001) %MON dynstat_vvel_max             =   1.6573544604728E-01
(PID.TID 0000.0001) %MON dynstat_vvel_min             =  -1.4224882637115E-01
(PID.TID 0000.0001) %MON dynstat_vvel_mean            =   3.2376158324004E-04
(PID.TID 0000.0001) %MON dynstat_vvel_sd              =   1.4655784556452E-02
(PID.TID 0000.0001) %MON dynstat_vvel_del2            =   5.0530401606246E-03
(PID.TID 0000.0001) %MON dynstat_wvel_max             =   3.1238530365773E-04
(PID.TID 0000.0001) %MON dynstat_wvel_min             =  -2.3573099087742E-04
(PID.TID 0000.0001) %MON dynstat_wvel_mean            =  -1.1973340857184E-22
(PID.TID 0000.0001) %MON dynstat_wvel_sd              =   2.8202206661668E-05
(PID.TID 0000.0001) %MON dynstat_wvel_del2            =   1.1661240186197E-05
(PID.TID 0000.0001) %MON dynstat_theta_max            =   2.9685365577003E+01
(PID.TID 0000.0001) %MON dynstat_theta_min            =  -1.9500114487975E+00
(PID.TID 0000.0001) %MON dynstat_theta_mean           =   3.5928990565051E+00
(PID.TID 0000.0001) %MON dynstat_theta_sd             =   4.3445380902816E+00
(PID.TID 0000.0001) %MON dynstat_theta_del2           =   1.3209893163001E-01
(PID.TID 0000.0001) %MON dynstat_salt_max             =   3.7383994638611E+01
(PID.TID 0000.0001) %MON dynstat_salt_min             =   2.9801901309423E+01
(PID.TID 0000.0001) %MON dynstat_salt_mean            =   3.4716157004240E+01
(PID.TID 0000.0001) %MON dynstat_salt_sd              =   2.9361243224605E-01
(PID.TID 0000.0001) %MON dynstat_salt_del2            =   2.4406814164924E-02
(PID.TID 0000.0001) %MON advcfl_uvel_max              =   3.1106240800860E-02
(PID.TID 0000.0001) %MON advcfl_vvel_max              =   1.6099869545001E-02
(PID.TID 0000.0001) %MON advcfl_wvel_max              =   1.7753660642378E-01
(PID.TID 0000.0001) %MON advcfl_W_hf_max              =   1.2615937562730E-01
(PID.TID 0000.0001) %MON pe_b_mean                    =   2.1832845720144E-04
(PID.TID 0000.0001) %MON ke_max                       =   1.9192043231245E-02
(PID.TID 0000.0001) %MON ke_mean                      =   2.2571650867156E-04
(PID.TID 0000.0001) %MON ke_vol                       =   1.3226782436723E+18
(PID.TID 0000.0001) %MON vort_r_min                   =  -1.0119289670076E-06
(PID.TID 0000.0001) %MON vort_r_max                   =   6.4789940646821E-07
(PID.TID 0000.0001) %MON vort_a_mean                  =  -2.5205768704875E-05
(PID.TID 0000.0001) %MON vort_a_sd                    =   7.3403017402697E-05
(PID.TID 0000.0001) %MON vort_p_mean                  =  -3.1758668689895E-05
(PID.TID 0000.0001) %MON vort_p_sd                    =   1.3126330489384E-04
(PID.TID 0000.0001) %MON surfExpan_theta_mean         =   1.0299422312123E-05
(PID.TID 0000.0001) %MON surfExpan_salt_mean          =  -2.2428913816458E-07
(PID.TID 0000.0001) // =======================================================
(PID.TID 0000.0001) // End MONITOR dynamic field statistics
(PID.TID 0000.0001) // =======================================================
time,SST,SSS,fu,fv,Q,E-P,i0,i1,a,b =   2.2464E+06  4.1199E-01  3.4607E+01 -2.7860E-02 -4.2729E-02  2.5650E+02  0.0000E+00     1     2  3.6667E-01  6.3333E-01
time,fu0,fu1,fu =   2.2464E+06 -3.5633E-02 -1.4435E-02 -2.7860E-02  3.6667E-01  6.3333E-01
 cg2d: Sum(rhs),rhsMax =   5.07788255887931E-14  7.98902779435334E+00
(PID.TID 0000.0001)                    cg2d_init_res =    5.96107243247371E-01
(PID.TID 0000.0001)                       cg2d_iters =    24
(PID.TID 0000.0001)                         cg2d_res =    9.73024123160055E-14
(PID.TID 0000.0001) // =======================================================
(PID.TID 0000.0001) // Begin MONITOR dynamic field statistics
(PID.TID 0000.0001) // =======================================================
(PID.TID 0000.0001) %MON time_tsnumber                =                    53
(PID.TID 0000.0001) %MON time_secondsf                =   2.2896000000000E+06
(PID.TID 0000.0001) %MON dynstat_eta_max              =   9.1039404767819E-01
(PID.TID 0000.0001) %MON dynstat_eta_min              =  -1.1240028979231E+00
(PID.TID 0000.0001) %MON dynstat_eta_mean             =  -5.8803746761445E-17
(PID.TID 0000.0001) %MON dynstat_eta_sd               =   4.1314528436730E-01
(PID.TID 0000.0001) %MON dynstat_eta_del2             =   1.9265469113267E-02
(PID.TID 0000.0001) %MON dynstat_uvel_max             =   1.3775403227853E-01
(PID.TID 0000.0001) %MON dynstat_uvel_min             =  -1.9949852345989E-01
(PID.TID 0000.0001) %MON dynstat_uvel_mean            =  -1.8132457761037E-03
(PID.TID 0000.0001) %MON dynstat_uvel_sd              =   1.6783783789406E-02
(PID.TID 0000.0001) %MON dynstat_uvel_del2            =   5.3676695351076E-03
(PID.TID 0000.0001) %MON dynstat_vvel_max             =   1.6227133090876E-01
(PID.TID 0000.0001) %MON dynstat_vvel_min             =  -1.4264535333465E-01
(PID.TID 0000.0001) %MON dynstat_vvel_mean            =   1.4602147129325E-05
(PID.TID 0000.0001) %MON dynstat_vvel_sd              =   1.4699429062861E-02
(PID.TID 0000.0001) %MON dynstat_vvel_del2            =   5.0301975894185E-03
(PID.TID 0000.0001) %MON dynstat_wvel_max             =   3.1309788411521E-04
(PID.TID 0000.0001) %MON dynstat_wvel_min             =  -2.3794152069214E-04
(PID.TID 0000.0001) %MON dynstat_wvel_mean            =  -3.9665524781262E-22
(PID.TID 0000.0001) %MON dynstat_wvel_sd              =   2.7983795338863E-05
(PID.TID 0000.0001) %MON dynstat_wvel_del2            =   1.1550988539691E-05
(PID.TID 0000.0001) %MON dynstat_theta_max            =   2.9689754137202E+01
(PID.TID 0000.0001) %MON dynstat_theta_min            =  -1.9517345922522E+00
(PID.TID 0000.0001) %MON dynstat_theta_mean           =   3.5928357830537E+00
(PID.TID 0000.0001) %MON dynstat_theta_sd             =   4.3441812802022E+00
(PID.TID 0000.0001) %MON dynstat_theta_del2           =   1.3198606159147E-01
(PID.TID 0000.0001) %MON dynstat_salt_max             =   3.7384941062051E+01
(PID.TID 0000.0001) %MON dynstat_salt_min             =   2.9801185972402E+01
(PID.TID 0000.0001) %MON dynstat_salt_mean            =   3.4716162734409E+01
(PID.TID 0000.0001) %MON dynstat_salt_sd              =   2.9361900137443E-01
(PID.TID 0000.0001) %MON dynstat_salt_del2            =   2.4355505865243E-02
(PID.TID 0000.0001) %MON advcfl_uvel_max              =   3.1688764822553E-02
(PID.TID 0000.0001) %MON advcfl_vvel_max              =   1.5763358538157E-02
(PID.TID 0000.0001) %MON advcfl_wvel_max              =   1.8745278105278E-01
(PID.TID 0000.0001) %MON advcfl_W_hf_max              =   1.3274388407782E-01
(PID.TID 0000.0001) %MON pe_b_mean                    =   2.1841718239201E-04
(PID.TID 0000.0001) %MON ke_max                       =   1.9439185388848E-02
(PID.TID 0000.0001) %MON ke_mean                      =   2.2647704143167E-04
(PID.TID 0000.0001) %MON ke_vol                       =   1.3226782436723E+18
(PID.TID 0000.0001) %MON vort_r_min                   =  -1.0265907730079E-06
(PID.TID 0000.0001) %MON vort_r_max                   =   6.5962296206611E-07
(PID.TID 0000.0001) %MON vort_a_mean                  =  -2.5205768680825E-05
(PID.TID 0000.0001) %MON vort_a_sd                    =   7.3403041680055E-05
(PID.TID 0000.0001) %MON vort_p_mean                  =  -3.1758668659593E-05
(PID.TID 0000.0001) %MON vort_p_sd                    =   1.3126332018635E-04
(PID.TID 0000.0001) %MON surfExpan_theta_mean         =   9.9981842721552E-06
(PID.TID 0000.0001) %MON surfExpan_salt_mean          =  -4.0364618336558E-07
(PID.TID 0000.0001) // =======================================================
(PID.TID 0000.0001) // End MONITOR dynamic field statistics
(PID.TID 0000.0001) // =======================================================
time,SST,SSS,fu,fv,Q,E-P,i0,i1,a,b =   2.2896E+06  3.8715E-01  3.4602E+01 -2.7507E-02 -4.2069E-02  2.5608E+02  0.0000E+00     1     2  3.8333E-01  6.1667E-01
time,fu0,fu1,fu =   2.2896E+06 -3.5633E-02 -1.4435E-02 -2.7507E-02  3.8333E-01  6.1667E-01
 cg2d: Sum(rhs),rhsMax =   2.22363794044611E-13  8.10539979146849E+00
(PID.TID 0000.0001)                    cg2d_init_res =    5.84267423151030E-01
(PID.TID 0000.0001)                       cg2d_iters =    25
(PID.TID 0000.0001)                         cg2d_res =    2.50075524620416E-14
(PID.TID 0000.0001) // =======================================================
(PID.TID 0000.0001) // Begin MONITOR dynamic field statistics
(PID.TID 0000.0001) // =======================================================
(PID.TID 0000.0001) %MON time_tsnumber                =                    54
(PID.TID 0000.0001) %MON time_secondsf                =   2.3328000000000E+06
(PID.TID 0000.0001) %MON dynstat_eta_max              =   9.1594062212292E-01
(PID.TID 0000.0001) %MON dynstat_eta_min              =  -1.1671530544782E+00
(PID.TID 0000.0001) %MON dynstat_eta_mean             =   7.0288419226862E-17
(PID.TID 0000.0001) %MON dynstat_eta_sd               =   4.1322719436927E-01
(PID.TID 0000.0001) %MON dynstat_eta_del2             =   1.9188976604515E-02
(PID.TID 0000.0001) %MON dynstat_uvel_max             =   1.4216080613574E-01
(PID.TID 0000.0001) %MON dynstat_uvel_min             =  -1.9892897879653E-01
(PID.TID 0000.0001) %MON dynstat_uvel_mean            =  -1.6752477537198E-03
(PID.TID 0000.0001) %MON dynstat_uvel_sd              =   1.6833691090786E-02
(PID.TID 0000.0001) %MON dynstat_uvel_del2            =   5.3412055182752E-03
(PID.TID 0000.0001) %MON dynstat_vvel_max             =   1.6239621605829E-01
(PID.TID 0000.0001) %MON dynstat_vvel_min             =  -1.4258600082073E-01
(PID.TID 0000.0001) %MON dynstat_vvel_mean            =  -2.8186323994786E-04
(PID.TID 0000.0001) %MON dynstat_vvel_sd              =   1.4761166799216E-02
(PID.TID 0000.0001) %MON dynstat_vvel_del2            =   5.0025529647163E-03
(PID.TID 0000.0001) %MON dynstat_wvel_max             =   3.1338444708744E-04
(PID.TID 0000.0001) %MON dynstat_wvel_min             =  -2.3965878005854E-04
(PID.TID 0000.0001) %MON dynstat_wvel_mean            =  -1.6751862876305E-22
(PID.TID 0000.0001) %MON dynstat_wvel_sd              =   2.7785304005810E-05
(PID.TID 0000.0001) %MON dynstat_wvel_del2            =   1.1432364790361E-05
(PID.TID 0000.0001) %MON dynstat_theta_max            =   2.9693007140858E+01
(PID.TID 0000.0001) %MON dynstat_theta_min            =  -1.9533129747369E+00
(PID.TID 0000.0001) %MON dynstat_theta_mean           =   3.5927743348782E+00
(PID.TID 0000.0001) %MON dynstat_theta_sd             =   4.3438459355831E+00
(PID.TID 0000.0001) %MON dynstat_theta_del2           =   1.3186314856453E-01
(PID.TID 0000.0001) %MON dynstat_salt_max             =   3.7385799318247E+01
(PID.TID 0000.0001) %MON dynstat_salt_min             =   2.9800429325401E+01
(PID.TID 0000.0001) %MON dynstat_salt_mean            =   3.4716169606141E+01
(PID.TID 0000.0001) %MON dynstat_salt_sd              =   2.9363224071682E-01
(PID.TID 0000.0001) %MON dynstat_salt_del2            =   2.4307251953007E-02
(PID.TID 0000.0001) %MON advcfl_uvel_max              =   3.2231077860033E-02
(PID.TID 0000.0001) %MON advcfl_vvel_max              =   1.5775490128976E-02
(PID.TID 0000.0001) %MON advcfl_wvel_max              =   1.9190205454952E-01
(PID.TID 0000.0001) %MON advcfl_W_hf_max              =   1.4178520225703E-01
(PID.TID 0000.0001) %MON pe_b_mean                    =   2.1850379756592E-04
(PID.TID 0000.0001) %MON ke_max                       =   1.9647923656001E-02
(PID.TID 0000.0001) %MON ke_mean                      =   2.2787268657570E-04
(PID.TID 0000.0001) %MON ke_vol                       =   1.3226782436723E+18
(PID.TID 0000.0001) %MON vort_r_min                   =  -1.0401092439601E-06
(PID.TID 0000.0001) %MON vort_r_max                   =   6.7020947319203E-07
(PID.TID 0000.0001) %MON vort_a_mean                  =  -2.5205768657829E-05
(PID.TID 0000.0001) %MON vort_a_sd                    =   7.3403067129238E-05
(PID.TID 0000.0001) %MON vort_p_mean                  =  -3.1758668630619E-05
(PID.TID 0000.0001) %MON vort_p_sd                    =   1.3126332977104E-04
(PID.TID 0000.0001) %MON surfExpan_theta_mean         =   9.7819335213803E-06
(PID.TID 0000.0001) %MON surfExpan_salt_mean          =  -5.3450732475226E-07
(PID.TID 0000.0001) // =======================================================
(PID.TID 0000.0001) // End MONITOR dynamic field statistics
(PID.TID 0000.0001) // =======================================================
time,SST,SSS,fu,fv,Q,E-P,i0,i1,a,b =   2.3328E+06  3.6231E-01  3.4597E+01 -2.7154E-02 -4.1408E-02  2.5565E+02  0.0000E+00     1     2  4.0000E-01  6.0000E-01
time,fu0,fu1,fu =   2.3328E+06 -3.5633E-02 -1.4435E-02 -2.7154E-02  4.0000E-01  6.0000E-01
 cg2d: Sum(rhs),rhsMax =  -1.97300509263698E-13  8.20893301381037E+00
(PID.TID 0000.0001)                    cg2d_init_res =    5.74919375535715E-01
(PID.TID 0000.0001)                       cg2d_iters =    25
(PID.TID 0000.0001)                         cg2d_res =    2.53334422147766E-14
(PID.TID 0000.0001) // =======================================================
(PID.TID 0000.0001) // Begin MONITOR dynamic field statistics
(PID.TID 0000.0001) // =======================================================
(PID.TID 0000.0001) %MON time_tsnumber                =                    55
(PID.TID 0000.0001) %MON time_secondsf                =   2.3760000000000E+06
(PID.TID 0000.0001) %MON dynstat_eta_max              =   9.2848443175877E-01
(PID.TID 0000.0001) %MON dynstat_eta_min              =  -1.2045150291488E+00
(PID.TID 0000.0001) %MON dynstat_eta_mean             =   1.4816205029866E-16
(PID.TID 0000.0001) %MON dynstat_eta_sd               =   4.1336959918137E-01
(PID.TID 0000.0001) %MON dynstat_eta_del2             =   1.9091579316391E-02
(PID.TID 0000.0001) %MON dynstat_uvel_max             =   1.5077056032594E-01
(PID.TID 0000.0001) %MON dynstat_uvel_min             =  -1.9811985441768E-01
(PID.TID 0000.0001) %MON dynstat_uvel_mean            =  -1.5325440527813E-03
(PID.TID 0000.0001) %MON dynstat_uvel_sd              =   1.6905274030669E-02
(PID.TID 0000.0001) %MON dynstat_uvel_del2            =   5.3153339795213E-03
(PID.TID 0000.0001) %MON dynstat_vvel_max             =   1.6338440934283E-01
(PID.TID 0000.0001) %MON dynstat_vvel_min             =  -1.4209152982805E-01
(PID.TID 0000.0001) %MON dynstat_vvel_mean            =  -5.6267388799076E-04
(PID.TID 0000.0001) %MON dynstat_vvel_sd              =   1.4833258362086E-02
(PID.TID 0000.0001) %MON dynstat_vvel_del2            =   4.9721056384011E-03
(PID.TID 0000.0001) %MON dynstat_wvel_max             =   3.1470706547110E-04
(PID.TID 0000.0001) %MON dynstat_wvel_min             =  -2.4070180206349E-04
(PID.TID 0000.0001) %MON dynstat_wvel_mean            =   3.7041406617377E-22
(PID.TID 0000.0001) %MON dynstat_wvel_sd              =   2.7601749401791E-05
(PID.TID 0000.0001) %MON dynstat_wvel_del2            =   1.1309347526965E-05
(PID.TID 0000.0001) %MON dynstat_theta_max            =   2.9716306051062E+01
(PID.TID 0000.0001) %MON dynstat_theta_min            =  -1.9547517611187E+00
(PID.TID 0000.0001) %MON dynstat_theta_mean           =   3.5927135108573E+00
(PID.TID 0000.0001) %MON dynstat_theta_sd             =   4.3435331122631E+00
(PID.TID 0000.0001) %MON dynstat_theta_del2           =   1.3176878877243E-01
(PID.TID 0000.0001) %MON dynstat_salt_max             =   3.7386565442150E+01
(PID.TID 0000.0001) %MON dynstat_salt_min             =   2.9799629404332E+01
(PID.TID 0000.0001) %MON dynstat_salt_mean            =   3.4716177016719E+01
(PID.TID 0000.0001) %MON dynstat_salt_sd              =   2.9365153660580E-01
(PID.TID 0000.0001) %MON dynstat_salt_del2            =   2.4259344763089E-02
(PID.TID 0000.0001) %MON advcfl_uvel_max              =   3.2724295661756E-02
(PID.TID 0000.0001) %MON advcfl_vvel_max              =   1.5871485182212E-02
(PID.TID 0000.0001) %MON advcfl_wvel_max              =   1.9100886077511E-01
(PID.TID 0000.0001) %MON advcfl_W_hf_max              =   1.5808319851435E-01
(PID.TID 0000.0001) %MON pe_b_mean                    =   2.1865442344048E-04
(PID.TID 0000.0001) %MON ke_max                       =   1.9816498229461E-02
(PID.TID 0000.0001) %MON ke_mean                      =   2.2982624435991E-04
(PID.TID 0000.0001) %MON ke_vol                       =   1.3226782436723E+18
(PID.TID 0000.0001) %MON vort_r_min                   =  -1.0524526557593E-06
(PID.TID 0000.0001) %MON vort_r_max                   =   6.7961217855828E-07
(PID.TID 0000.0001) %MON vort_a_mean                  =  -2.5205768635291E-05
(PID.TID 0000.0001) %MON vort_a_sd                    =   7.3403093489495E-05
(PID.TID 0000.0001) %MON vort_p_mean                  =  -3.1758668602220E-05
(PID.TID 0000.0001) %MON vort_p_sd                    =   1.3126333333967E-04
(PID.TID 0000.0001) %MON surfExpan_theta_mean         =   9.6622014627201E-06
(PID.TID 0000.0001) %MON surfExpan_salt_mean          =  -6.1384979213960E-07
(PID.TID 0000.0001) // =======================================================
(PID.TID 0000.0001) // End MONITOR dynamic field statistics
(PID.TID 0000.0001) // =======================================================
time,SST,SSS,fu,fv,Q,E-P,i0,i1,a,b =   2.3760E+06  3.3747E-01  3.4592E+01 -2.6800E-02 -4.0748E-02  2.5523E+02  0.0000E+00     1     2  4.1667E-01  5.8333E-01
time,fu0,fu1,fu =   2.3760E+06 -3.5633E-02 -1.4435E-02 -2.6800E-02  4.1667E-01  5.8333E-01
 cg2d: Sum(rhs),rhsMax =  -3.33413852082742E-13  8.29950274650514E+00
(PID.TID 0000.0001)                    cg2d_init_res =    5.66184509781975E-01
(PID.TID 0000.0001)                       cg2d_iters =    25
(PID.TID 0000.0001)                         cg2d_res =    2.50401697648051E-14
(PID.TID 0000.0001) // =======================================================
(PID.TID 0000.0001) // Begin MONITOR dynamic field statistics
(PID.TID 0000.0001) // =======================================================
(PID.TID 0000.0001) %MON time_tsnumber                =                    56
(PID.TID 0000.0001) %MON time_secondsf                =   2.4192000000000E+06
(PID.TID 0000.0001) %MON dynstat_eta_max              =   9.3901558122123E-01
(PID.TID 0000.0001) %MON dynstat_eta_min              =  -1.2357047515220E+00
(PID.TID 0000.0001) %MON dynstat_eta_mean             =  -8.7696165409016E-18
(PID.TID 0000.0001) %MON dynstat_eta_sd               =   4.1362867419567E-01
(PID.TID 0000.0001) %MON dynstat_eta_del2             =   1.9018797848761E-02
(PID.TID 0000.0001) %MON dynstat_uvel_max             =   1.6200892833581E-01
(PID.TID 0000.0001) %MON dynstat_uvel_min             =  -1.9707775942293E-01
(PID.TID 0000.0001) %MON dynstat_uvel_mean            =  -1.3868505840383E-03
(PID.TID 0000.0001) %MON dynstat_uvel_sd              =   1.6999872209721E-02
(PID.TID 0000.0001) %MON dynstat_uvel_del2            =   5.2900764241334E-03
(PID.TID 0000.0001) %MON dynstat_vvel_max             =   1.6417346176827E-01
(PID.TID 0000.0001) %MON dynstat_vvel_min             =  -1.4119297436068E-01
(PID.TID 0000.0001) %MON dynstat_vvel_mean            =  -8.2524071508450E-04
(PID.TID 0000.0001) %MON dynstat_vvel_sd              =   1.4908027567835E-02
(PID.TID 0000.0001) %MON dynstat_vvel_del2            =   4.9395243158261E-03
(PID.TID 0000.0001) %MON dynstat_wvel_max             =   3.1961806806220E-04
(PID.TID 0000.0001) %MON dynstat_wvel_min             =  -2.4090389895780E-04
(PID.TID 0000.0001) %MON dynstat_wvel_mean            =   5.3623816361077E-22
(PID.TID 0000.0001) %MON dynstat_wvel_sd              =   2.7426400970573E-05
(PID.TID 0000.0001) %MON dynstat_wvel_del2            =   1.1185579584037E-05
(PID.TID 0000.0001) %MON dynstat_theta_max            =   2.9759525001778E+01
(PID.TID 0000.0001) %MON dynstat_theta_min            =  -1.9560516421394E+00
(PID.TID 0000.0001) %MON dynstat_theta_mean           =   3.5926520940444E+00
(PID.TID 0000.0001) %MON dynstat_theta_sd             =   4.3432424245234E+00
(PID.TID 0000.0001) %MON dynstat_theta_del2           =   1.3163297042865E-01
(PID.TID 0000.0001) %MON dynstat_salt_max             =   3.7387239753569E+01
(PID.TID 0000.0001) %MON dynstat_salt_min             =   2.9798782921961E+01
(PID.TID 0000.0001) %MON dynstat_salt_mean            =   3.4716184375431E+01
(PID.TID 0000.0001) %MON dynstat_salt_sd              =   2.9367602049151E-01
(PID.TID 0000.0001) %MON dynstat_salt_del2            =   2.4211566700831E-02
(PID.TID 0000.0001) %MON advcfl_uvel_max              =   3.3166863116462E-02
(PID.TID 0000.0001) %MON advcfl_vvel_max              =   1.5948135297903E-02
(PID.TID 0000.0001) %MON advcfl_wvel_max              =   1.8508152638113E-01
(PID.TID 0000.0001) %MON advcfl_W_hf_max              =   1.7011991298792E-01
(PID.TID 0000.0001) %MON pe_b_mean                    =   2.1892858801246E-04
(PID.TID 0000.0001) %MON ke_max                       =   1.9943664044334E-02
(PID.TID 0000.0001) %MON ke_mean                      =   2.3225209714027E-04
(PID.TID 0000.0001) %MON ke_vol                       =   1.3226782436723E+18
(PID.TID 0000.0001) %MON vort_r_min                   =  -1.0635934260232E-06
(PID.TID 0000.0001) %MON vort_r_max                   =   6.8779305239045E-07
(PID.TID 0000.0001) %MON vort_a_mean                  =  -2.5205768612673E-05
(PID.TID 0000.0001) %MON vort_a_sd                    =   7.3403120466555E-05
(PID.TID 0000.0001) %MON vort_p_mean                  =  -3.1758668573723E-05
(PID.TID 0000.0001) %MON vort_p_sd                    =   1.3126333069719E-04
(PID.TID 0000.0001) %MON surfExpan_theta_mean         =   9.6452884394371E-06
(PID.TID 0000.0001) %MON surfExpan_salt_mean          =  -6.4134741473534E-07
(PID.TID 0000.0001) // =======================================================
(PID.TID 0000.0001) // End MONITOR dynamic field statistics
(PID.TID 0000.0001) // =======================================================
time,SST,SSS,fu,fv,Q,E-P,i0,i1,a,b =   2.4192E+06  3.1264E-01  3.4587E+01 -2.6447E-02 -4.0088E-02  2.5481E+02  0.0000E+00     1     2  4.3333E-01  5.6667E-01
time,fu0,fu1,fu =   2.4192E+06 -3.5633E-02 -1.4435E-02 -2.6447E-02  4.3333E-01  5.6667E-01
 cg2d: Sum(rhs),rhsMax =   3.93962640288237E-13  8.37678260619475E+00
(PID.TID 0000.0001)                    cg2d_init_res =    5.56435389717869E-01
(PID.TID 0000.0001)                       cg2d_iters =    25
(PID.TID 0000.0001)                         cg2d_res =    2.43338726078780E-14
(PID.TID 0000.0001) // =======================================================
(PID.TID 0000.0001) // Begin MONITOR dynamic field statistics
(PID.TID 0000.0001) // =======================================================
(PID.TID 0000.0001) %MON time_tsnumber                =                    57
(PID.TID 0000.0001) %MON time_secondsf                =   2.4624000000000E+06
(PID.TID 0000.0001) %MON dynstat_eta_max              =   9.9351498923019E-01
(PID.TID 0000.0001) %MON dynstat_eta_min              =  -1.2605191107094E+00
(PID.TID 0000.0001) %MON dynstat_eta_mean             =  -1.6128626006997E-16
(PID.TID 0000.0001) %MON dynstat_eta_sd               =   4.1404813240491E-01
(PID.TID 0000.0001) %MON dynstat_eta_del2             =   1.9021617566501E-02
(PID.TID 0000.0001) %MON dynstat_uvel_max             =   1.7225779427477E-01
(PID.TID 0000.0001) %MON dynstat_uvel_min             =  -1.9581046422002E-01
(PID.TID 0000.0001) %MON dynstat_uvel_mean            =  -1.2398782907317E-03
(PID.TID 0000.0001) %MON dynstat_uvel_sd              =   1.7118073061556E-02
(PID.TID 0000.0001) %MON dynstat_uvel_del2            =   5.2659166771150E-03
(PID.TID 0000.0001) %MON dynstat_vvel_max             =   1.6477176517826E-01
(PID.TID 0000.0001) %MON dynstat_vvel_min             =  -1.3992965427282E-01
(PID.TID 0000.0001) %MON dynstat_vvel_mean            =  -1.0673624041605E-03
(PID.TID 0000.0001) %MON dynstat_vvel_sd              =   1.4978719212861E-02
(PID.TID 0000.0001) %MON dynstat_vvel_del2            =   4.9060862511508E-03
(PID.TID 0000.0001) %MON dynstat_wvel_max             =   3.2423627109077E-04
(PID.TID 0000.0001) %MON dynstat_wvel_min             =  -2.4012191776930E-04
(PID.TID 0000.0001) %MON dynstat_wvel_mean            =  -1.5679226616405E-22
(PID.TID 0000.0001) %MON dynstat_wvel_sd              =   2.7252266634871E-05
(PID.TID 0000.0001) %MON dynstat_wvel_del2            =   1.1061638306297E-05
(PID.TID 0000.0001) %MON dynstat_theta_max            =   2.9794185336951E+01
(PID.TID 0000.0001) %MON dynstat_theta_min            =  -1.9572100394458E+00
(PID.TID 0000.0001) %MON dynstat_theta_mean           =   3.5925889224814E+00
(PID.TID 0000.0001) %MON dynstat_theta_sd             =   4.3429714760498E+00
(PID.TID 0000.0001) %MON dynstat_theta_del2           =   1.3149026850858E-01
(PID.TID 0000.0001) %MON dynstat_salt_max             =   3.7387826361963E+01
(PID.TID 0000.0001) %MON dynstat_salt_min             =   2.9797885594184E+01
(PID.TID 0000.0001) %MON dynstat_salt_mean            =   3.4716191133636E+01
(PID.TID 0000.0001) %MON dynstat_salt_sd              =   2.9370473081115E-01
(PID.TID 0000.0001) %MON dynstat_salt_del2            =   2.4163231079542E-02
(PID.TID 0000.0001) %MON advcfl_uvel_max              =   3.3552598482800E-02
(PID.TID 0000.0001) %MON advcfl_vvel_max              =   1.6006255676367E-02
(PID.TID 0000.0001) %MON advcfl_wvel_max              =   1.9415361785491E-01
(PID.TID 0000.0001) %MON advcfl_W_hf_max              =   1.7757373888742E-01
(PID.TID 0000.0001) %MON pe_b_mean                    =   2.1937284133448E-04
(PID.TID 0000.0001) %MON ke_max                       =   2.0028681701252E-02
(PID.TID 0000.0001) %MON ke_mean                      =   2.3506308164785E-04
(PID.TID 0000.0001) %MON ke_vol                       =   1.3226782436723E+18
(PID.TID 0000.0001) %MON vort_r_min                   =  -1.0735014774397E-06
(PID.TID 0000.0001) %MON vort_r_max                   =   6.9472237106883E-07
(PID.TID 0000.0001) %MON vort_a_mean                  =  -2.5205768589468E-05
(PID.TID 0000.0001) %MON vort_a_sd                    =   7.3403147749681E-05
(PID.TID 0000.0001) %MON vort_p_mean                  =  -3.1758668544486E-05
(PID.TID 0000.0001) %MON vort_p_sd                    =   1.3126332181875E-04
(PID.TID 0000.0001) %MON surfExpan_theta_mean         =   9.7324572241104E-06
(PID.TID 0000.0001) %MON surfExpan_salt_mean          =  -6.1914937614408E-07
(PID.TID 0000.0001) // =======================================================
(PID.TID 0000.0001) // End MONITOR dynamic field statistics
(PID.TID 0000.0001) // =======================================================
time,SST,SSS,fu,fv,Q,E-P,i0,i1,a,b =   2.4624E+06  2.8780E-01  3.4582E+01 -2.6094E-02 -3.9427E-02  2.5439E+02  0.0000E+00     1     2  4.5000E-01  5.5000E-01
time,fu0,fu1,fu =   2.4624E+06 -3.5633E-02 -1.4435E-02 -2.6094E-02  4.5000E-01  5.5000E-01
 cg2d: Sum(rhs),rhsMax =   2.10484407681122E-13  9.30280231737356E+00
(PID.TID 0000.0001)                    cg2d_init_res =    4.94074555609692E-01
(PID.TID 0000.0001)                       cg2d_iters =    24
(PID.TID 0000.0001)                         cg2d_res =    9.76759347112981E-14
(PID.TID 0000.0001) // =======================================================
(PID.TID 0000.0001) // Begin MONITOR dynamic field statistics
(PID.TID 0000.0001) // =======================================================
(PID.TID 0000.0001) %MON time_tsnumber                =                    58
(PID.TID 0000.0001) %MON time_secondsf                =   2.5056000000000E+06
(PID.TID 0000.0001) %MON dynstat_eta_max              =   1.1044689929621E+00
(PID.TID 0000.0001) %MON dynstat_eta_min              =  -1.2789240728633E+00
(PID.TID 0000.0001) %MON dynstat_eta_mean             =   7.0314174214694E-17
(PID.TID 0000.0001) %MON dynstat_eta_sd               =   4.1465459957904E-01
(PID.TID 0000.0001) %MON dynstat_eta_del2             =   1.9068250241863E-02
(PID.TID 0000.0001) %MON dynstat_uvel_max             =   1.8136107635550E-01
(PID.TID 0000.0001) %MON dynstat_uvel_min             =  -1.9432668859273E-01
(PID.TID 0000.0001) %MON dynstat_uvel_mean            =  -1.0932691900805E-03
(PID.TID 0000.0001) %MON dynstat_uvel_sd              =   1.7259466738527E-02
(PID.TID 0000.0001) %MON dynstat_uvel_del2            =   5.2433556712885E-03
(PID.TID 0000.0001) %MON dynstat_vvel_max             =   1.6519606433691E-01
(PID.TID 0000.0001) %MON dynstat_vvel_min             =  -1.3988687238996E-01
(PID.TID 0000.0001) %MON dynstat_vvel_mean            =  -1.2872393314033E-03
(PID.TID 0000.0001) %MON dynstat_vvel_sd              =   1.5040167915268E-02
(PID.TID 0000.0001) %MON dynstat_vvel_del2            =   4.8721950182252E-03
(PID.TID 0000.0001) %MON dynstat_wvel_max             =   3.2857881921146E-04
(PID.TID 0000.0001) %MON dynstat_wvel_min             =  -2.3824105110231E-04
(PID.TID 0000.0001) %MON dynstat_wvel_mean            =  -1.4099028865135E-22
(PID.TID 0000.0001) %MON dynstat_wvel_sd              =   2.7073377370250E-05
(PID.TID 0000.0001) %MON dynstat_wvel_del2            =   1.0937931230773E-05
(PID.TID 0000.0001) %MON dynstat_theta_max            =   2.9820114956579E+01
(PID.TID 0000.0001) %MON dynstat_theta_min            =  -1.9582218922618E+00
(PID.TID 0000.0001) %MON dynstat_theta_mean           =   3.5925228853928E+00
(PID.TID 0000.0001) %MON dynstat_theta_sd             =   4.3427160456123E+00
(PID.TID 0000.0001) %MON dynstat_theta_del2           =   1.3139064941941E-01
(PID.TID 0000.0001) %MON dynstat_salt_max             =   3.7388336077667E+01
(PID.TID 0000.0001) %MON dynstat_salt_min             =   2.9796932503681E+01
(PID.TID 0000.0001) %MON dynstat_salt_mean            =   3.4716196805590E+01
(PID.TID 0000.0001) %MON dynstat_salt_sd              =   2.9373628656668E-01
(PID.TID 0000.0001) %MON dynstat_salt_del2            =   2.4121040310530E-02
(PID.TID 0000.0001) %MON advcfl_uvel_max              =   3.3876593846095E-02
(PID.TID 0000.0001) %MON advcfl_vvel_max              =   1.6047472937160E-02
(PID.TID 0000.0001) %MON advcfl_wvel_max              =   2.0392115608731E-01
(PID.TID 0000.0001) %MON advcfl_W_hf_max              =   1.8493529029290E-01
(PID.TID 0000.0001) %MON pe_b_mean                    =   2.2001595430668E-04
(PID.TID 0000.0001) %MON ke_max                       =   2.0071273164932E-02
(PID.TID 0000.0001) %MON ke_mean                      =   2.3817655811099E-04
(PID.TID 0000.0001) %MON ke_vol                       =   1.3226782436723E+18
(PID.TID 0000.0001) %MON vort_r_min                   =  -1.0821419372905E-06
(PID.TID 0000.0001) %MON vort_r_max                   =   7.0037801172273E-07
(PID.TID 0000.0001) %MON vort_a_mean                  =  -2.5205768565212E-05
(PID.TID 0000.0001) %MON vort_a_sd                    =   7.3403175026461E-05
(PID.TID 0000.0001) %MON vort_p_mean                  =  -3.1758668513923E-05
(PID.TID 0000.0001) %MON vort_p_sd                    =   1.3126330682197E-04
(PID.TID 0000.0001) %MON surfExpan_theta_mean         =   9.9221184112611E-06
(PID.TID 0000.0001) %MON surfExpan_salt_mean          =  -5.5118772286658E-07
(PID.TID 0000.0001) // =======================================================
(PID.TID 0000.0001) // End MONITOR dynamic field statistics
(PID.TID 0000.0001) // =======================================================
time,SST,SSS,fu,fv,Q,E-P,i0,i1,a,b =   2.5056E+06  2.6296E-01  3.4578E+01 -2.5740E-02 -3.8767E-02  2.5397E+02  0.0000E+00     1     2  4.6667E-01  5.3333E-01
time,fu0,fu1,fu =   2.5056E+06 -3.5633E-02 -1.4435E-02 -2.5740E-02  4.6667E-01  5.3333E-01
 cg2d: Sum(rhs),rhsMax =   1.52156065524878E-13  1.01469446613972E+01
(PID.TID 0000.0001)                    cg2d_init_res =    4.43535533167498E-01
(PID.TID 0000.0001)                       cg2d_iters =    24
(PID.TID 0000.0001)                         cg2d_res =    8.69817370059654E-14
(PID.TID 0000.0001) // =======================================================
(PID.TID 0000.0001) // Begin MONITOR dynamic field statistics
(PID.TID 0000.0001) // =======================================================
(PID.TID 0000.0001) %MON time_tsnumber                =                    59
(PID.TID 0000.0001) %MON time_secondsf                =   2.5488000000000E+06
(PID.TID 0000.0001) %MON dynstat_eta_max              =   1.2028027321362E+00
(PID.TID 0000.0001) %MON dynstat_eta_min              =  -1.2910385395488E+00
(PID.TID 0000.0001) %MON dynstat_eta_mean             =   1.8858534838177E-16
(PID.TID 0000.0001) %MON dynstat_eta_sd               =   4.1545532470024E-01
(PID.TID 0000.0001) %MON dynstat_eta_del2             =   1.9099401739377E-02
(PID.TID 0000.0001) %MON dynstat_uvel_max             =   1.8917861388054E-01
(PID.TID 0000.0001) %MON dynstat_uvel_min             =  -1.9263583575288E-01
(PID.TID 0000.0001) %MON dynstat_uvel_mean            =  -9.4853696300121E-04
(PID.TID 0000.0001) %MON dynstat_uvel_sd              =   1.7422469157456E-02
(PID.TID 0000.0001) %MON dynstat_uvel_del2            =   5.2225334696864E-03
(PID.TID 0000.0001) %MON dynstat_vvel_max             =   1.6547075900116E-01
(PID.TID 0000.0001) %MON dynstat_vvel_min             =  -1.4120126575481E-01
(PID.TID 0000.0001) %MON dynstat_vvel_mean            =  -1.4834799582867E-03
(PID.TID 0000.0001) %MON dynstat_vvel_sd              =   1.5089214187439E-02
(PID.TID 0000.0001) %MON dynstat_vvel_del2            =   4.8388796475952E-03
(PID.TID 0000.0001) %MON dynstat_wvel_max             =   3.3266515624592E-04
(PID.TID 0000.0001) %MON dynstat_wvel_min             =  -2.3517929070508E-04
(PID.TID 0000.0001) %MON dynstat_wvel_mean            =   4.2585478921828E-22
(PID.TID 0000.0001) %MON dynstat_wvel_sd              =   2.6885799412175E-05
(PID.TID 0000.0001) %MON dynstat_wvel_del2            =   1.0816131897623E-05
(PID.TID 0000.0001) %MON dynstat_theta_max            =   2.9837197816064E+01
(PID.TID 0000.0001) %MON dynstat_theta_min            =  -1.9590794922154E+00
(PID.TID 0000.0001) %MON dynstat_theta_mean           =   3.5924529579517E+00
(PID.TID 0000.0001) %MON dynstat_theta_sd             =   4.3424733869572E+00
(PID.TID 0000.0001) %MON dynstat_theta_del2           =   1.3123284861354E-01
(PID.TID 0000.0001) %MON dynstat_salt_max             =   3.7388777420900E+01
(PID.TID 0000.0001) %MON dynstat_salt_min             =   2.9795918491107E+01
(PID.TID 0000.0001) %MON dynstat_salt_mean            =   3.4716200981683E+01
(PID.TID 0000.0001) %MON dynstat_salt_sd              =   2.9376992463167E-01
(PID.TID 0000.0001) %MON dynstat_salt_del2            =   2.4072225976807E-02
(PID.TID 0000.0001) %MON advcfl_uvel_max              =   3.4679217286032E-02
(PID.TID 0000.0001) %MON advcfl_vvel_max              =   1.6074157321005E-02
(PID.TID 0000.0001) %MON advcfl_wvel_max              =   2.0819875414320E-01
(PID.TID 0000.0001) %MON advcfl_W_hf_max              =   1.8883884248244E-01
(PID.TID 0000.0001) %MON pe_b_mean                    =   2.2086650511195E-04
(PID.TID 0000.0001) %MON ke_max                       =   2.0071554790773E-02
(PID.TID 0000.0001) %MON ke_mean                      =   2.4151817604764E-04
(PID.TID 0000.0001) %MON ke_vol                       =   1.3226782436723E+18
(PID.TID 0000.0001) %MON vort_r_min                   =  -1.0894746516125E-06
(PID.TID 0000.0001) %MON vort_r_max                   =   7.0474440428019E-07
(PID.TID 0000.0001) %MON vort_a_mean                  =  -2.5205768539509E-05
(PID.TID 0000.0001) %MON vort_a_sd                    =   7.3403201996837E-05
(PID.TID 0000.0001) %MON vort_p_mean                  =  -3.1758668481538E-05
(PID.TID 0000.0001) %MON vort_p_sd                    =   1.3126328614021E-04
(PID.TID 0000.0001) %MON surfExpan_theta_mean         =   1.0203915908524E-05
(PID.TID 0000.0001) %MON surfExpan_salt_mean          =  -4.4415085181887E-07
(PID.TID 0000.0001) // =======================================================
(PID.TID 0000.0001) // End MONITOR dynamic field statistics
(PID.TID 0000.0001) // =======================================================
time,SST,SSS,fu,fv,Q,E-P,i0,i1,a,b =   2.5488E+06  2.3812E-01  3.4573E+01 -2.5387E-02 -3.8106E-02  2.5355E+02  0.0000E+00     1     2  4.8333E-01  5.1667E-01
time,fu0,fu1,fu =   2.5488E+06 -3.5633E-02 -1.4435E-02 -2.5387E-02  4.8333E-01  5.1667E-01
 cg2d: Sum(rhs),rhsMax =   1.45716771982052E-15  1.08659375451659E+01
(PID.TID 0000.0001)                    cg2d_init_res =    4.02742162821053E-01
(PID.TID 0000.0001)                       cg2d_iters =    24
(PID.TID 0000.0001)                         cg2d_res =    7.74132262494542E-14
(PID.TID 0000.0001) // =======================================================
(PID.TID 0000.0001) // Begin MONITOR dynamic field statistics
(PID.TID 0000.0001) // =======================================================
(PID.TID 0000.0001) %MON time_tsnumber                =                    60
(PID.TID 0000.0001) %MON time_secondsf                =   2.5920000000000E+06
(PID.TID 0000.0001) %MON dynstat_eta_max              =   1.2865750194107E+00
(PID.TID 0000.0001) %MON dynstat_eta_min              =  -1.2971154136643E+00
(PID.TID 0000.0001) %MON dynstat_eta_mean             =   1.3982993689714E-16
(PID.TID 0000.0001) %MON dynstat_eta_sd               =   4.1643850992899E-01
(PID.TID 0000.0001) %MON dynstat_eta_del2             =   1.9151048432189E-02
(PID.TID 0000.0001) %MON dynstat_uvel_max             =   1.9558918701490E-01
(PID.TID 0000.0001) %MON dynstat_uvel_min             =  -1.9074768856658E-01
(PID.TID 0000.0001) %MON dynstat_uvel_mean            =  -8.0703873051211E-04
(PID.TID 0000.0001) %MON dynstat_uvel_sd              =   1.7604276755450E-02
(PID.TID 0000.0001) %MON dynstat_uvel_del2            =   5.2033867070871E-03
(PID.TID 0000.0001) %MON dynstat_vvel_max             =   1.6562663237319E-01
(PID.TID 0000.0001) %MON dynstat_vvel_min             =  -1.4311880927998E-01
(PID.TID 0000.0001) %MON dynstat_vvel_mean            =  -1.6551059157355E-03
(PID.TID 0000.0001) %MON dynstat_vvel_sd              =   1.5124824514928E-02
(PID.TID 0000.0001) %MON dynstat_vvel_del2            =   4.8074479561718E-03
(PID.TID 0000.0001) %MON dynstat_wvel_max             =   3.3651588285063E-04
(PID.TID 0000.0001) %MON dynstat_wvel_min             =  -2.3089020327316E-04
(PID.TID 0000.0001) %MON dynstat_wvel_mean            =  -2.3212416270484E-22
(PID.TID 0000.0001) %MON dynstat_wvel_sd              =   2.6688451236221E-05
(PID.TID 0000.0001) %MON dynstat_wvel_del2            =   1.0695376346751E-05
(PID.TID 0000.0001) %MON dynstat_theta_max            =   2.9845363809658E+01
(PID.TID 0000.0001) %MON dynstat_theta_min            =  -1.9597731146465E+00
(PID.TID 0000.0001) %MON dynstat_theta_mean           =   3.5923783333757E+00
(PID.TID 0000.0001) %MON dynstat_theta_sd             =   4.3422380095932E+00
(PID.TID 0000.0001) %MON dynstat_theta_del2           =   1.3108896238306E-01
(PID.TID 0000.0001) %MON dynstat_salt_max             =   3.7389161918859E+01
(PID.TID 0000.0001) %MON dynstat_salt_min             =   2.9794838547983E+01
(PID.TID 0000.0001) %MON dynstat_salt_mean            =   3.4716203352588E+01
(PID.TID 0000.0001) %MON dynstat_salt_sd              =   2.9380432777325E-01
(PID.TID 0000.0001) %MON dynstat_salt_del2            =   2.4025431611614E-02
(PID.TID 0000.0001) %MON advcfl_uvel_max              =   3.5854369456218E-02
(PID.TID 0000.0001) %MON advcfl_vvel_max              =   1.6089299169144E-02
(PID.TID 0000.0001) %MON advcfl_wvel_max              =   2.0679507555574E-01
(PID.TID 0000.0001) %MON advcfl_W_hf_max              =   1.8749044684878E-01
(PID.TID 0000.0001) %MON pe_b_mean                    =   2.2191311407810E-04
(PID.TID 0000.0001) %MON ke_max                       =   2.0029966637963E-02
(PID.TID 0000.0001) %MON ke_mean                      =   2.4502331870097E-04
(PID.TID 0000.0001) %MON ke_vol                       =   1.3226782436723E+18
(PID.TID 0000.0001) %MON vort_r_min                   =  -1.0954531506746E-06
(PID.TID 0000.0001) %MON vort_r_max                   =   7.0781155063301E-07
(PID.TID 0000.0001) %MON vort_a_mean                  =  -2.5205768512053E-05
(PID.TID 0000.0001) %MON vort_a_sd                    =   7.3403228381656E-05
(PID.TID 0000.0001) %MON vort_p_mean                  =  -3.1758668446944E-05
(PID.TID 0000.0001) %MON vort_p_sd                    =   1.3126326003413E-04
(PID.TID 0000.0001) %MON surfExpan_theta_mean         =   1.0568671912506E-05
(PID.TID 0000.0001) %MON surfExpan_salt_mean          =  -3.0480210506053E-07
(PID.TID 0000.0001) // =======================================================
(PID.TID 0000.0001) // End MONITOR dynamic field statistics
(PID.TID 0000.0001) // =======================================================
time,SST,SSS,fu,fv,Q,E-P,i0,i1,a,b =   2.5920E+06  2.1328E-01  3.4568E+01 -2.5034E-02 -3.7446E-02  2.5313E+02  0.0000E+00     1     2  5.0000E-01  5.0000E-01
time,fu0,fu1,fu =   2.5920E+06 -3.5633E-02 -1.4435E-02 -2.5034E-02  5.0000E-01  5.0000E-01
 cg2d: Sum(rhs),rhsMax =  -3.84775544759464E-13  1.14474193863632E+01
(PID.TID 0000.0001)                    cg2d_init_res =    3.69684324427867E-01
(PID.TID 0000.0001)                       cg2d_iters =    24
(PID.TID 0000.0001)                         cg2d_res =    6.76382197729235E-14
(PID.TID 0000.0001) // =======================================================
(PID.TID 0000.0001) // Begin MONITOR dynamic field statistics
(PID.TID 0000.0001) // =======================================================
(PID.TID 0000.0001) %MON time_tsnumber                =                    61
(PID.TID 0000.0001) %MON time_secondsf                =   2.6352000000000E+06
(PID.TID 0000.0001) %MON dynstat_eta_max              =   1.3543458601297E+00
(PID.TID 0000.0001) %MON dynstat_eta_min              =  -1.2975219245447E+00
(PID.TID 0000.0001) %MON dynstat_eta_mean             =   2.0561861600443E-16
(PID.TID 0000.0001) %MON dynstat_eta_sd               =   4.1757655794024E-01
(PID.TID 0000.0001) %MON dynstat_eta_del2             =   1.9262080789639E-02
(PID.TID 0000.0001) %MON dynstat_uvel_max             =   2.0049265222198E-01
(PID.TID 0000.0001) %MON dynstat_uvel_min             =  -1.8867209893034E-01
(PID.TID 0000.0001) %MON dynstat_uvel_mean            =  -6.6993427391719E-04
(PID.TID 0000.0001) %MON dynstat_uvel_sd              =   1.7800912684720E-02
(PID.TID 0000.0001) %MON dynstat_uvel_del2            =   5.1856478882414E-03
(PID.TID 0000.0001) %MON dynstat_vvel_max             =   1.6569913169791E-01
(PID.TID 0000.0001) %MON dynstat_vvel_min             =  -1.4347830247257E-01
(PID.TID 0000.0001) %MON dynstat_vvel_mean            =  -1.8015461092551E-03
(PID.TID 0000.0001) %MON dynstat_vvel_sd              =   1.5147957582790E-02
(PID.TID 0000.0001) %MON dynstat_vvel_del2            =   4.7792556743008E-03
(PID.TID 0000.0001) %MON dynstat_wvel_max             =   3.4015172621096E-04
(PID.TID 0000.0001) %MON dynstat_wvel_min             =  -2.2536328174049E-04
(PID.TID 0000.0001) %MON dynstat_wvel_mean            =  -4.1292473172415E-22
(PID.TID 0000.0001) %MON dynstat_wvel_sd              =   2.6482834117379E-05
(PID.TID 0000.0001) %MON dynstat_wvel_del2            =   1.0579296077688E-05
(PID.TID 0000.0001) %MON dynstat_theta_max            =   2.9844206117844E+01
(PID.TID 0000.0001) %MON dynstat_theta_min            =  -1.9602915690904E+00
(PID.TID 0000.0001) %MON dynstat_theta_mean           =   3.5922983218684E+00
(PID.TID 0000.0001) %MON dynstat_theta_sd             =   4.3420041696098E+00
(PID.TID 0000.0001) %MON dynstat_theta_del2           =   1.3097682577309E-01
(PID.TID 0000.0001) %MON dynstat_salt_max             =   3.7389501993066E+01
(PID.TID 0000.0001) %MON dynstat_salt_min             =   2.9793688187515E+01
(PID.TID 0000.0001) %MON dynstat_salt_mean            =   3.4716203697743E+01
(PID.TID 0000.0001) %MON dynstat_salt_sd              =   2.9383823394269E-01
(PID.TID 0000.0001) %MON dynstat_salt_del2            =   2.3982229079978E-02
(PID.TID 0000.0001) %MON advcfl_uvel_max              =   3.6753246617238E-02
(PID.TID 0000.0001) %MON advcfl_vvel_max              =   1.6096341897165E-02
(PID.TID 0000.0001) %MON advcfl_wvel_max              =   1.9970634798758E-01
(PID.TID 0000.0001) %MON advcfl_W_hf_max              =   1.8088760534888E-01
(PID.TID 0000.0001) %MON pe_b_mean                    =   2.2312766486949E-04
(PID.TID 0000.0001) %MON ke_max                       =   1.9947199842318E-02
(PID.TID 0000.0001) %MON ke_mean                      =   2.4863587982759E-04
(PID.TID 0000.0001) %MON ke_vol                       =   1.3226782436723E+18
(PID.TID 0000.0001) %MON vort_r_min                   =  -1.1000245852798E-06
(PID.TID 0000.0001) %MON vort_r_max                   =   7.0957407650313E-07
(PID.TID 0000.0001) %MON vort_a_mean                  =  -2.5205768482639E-05
(PID.TID 0000.0001) %MON vort_a_sd                    =   7.3403253933729E-05
(PID.TID 0000.0001) %MON vort_p_mean                  =  -3.1758668409884E-05
(PID.TID 0000.0001) %MON vort_p_sd                    =   1.3126322922785E-04
(PID.TID 0000.0001) %MON surfExpan_theta_mean         =   1.1002907112976E-05
(PID.TID 0000.0001) %MON surfExpan_salt_mean          =  -1.4113730916425E-07
(PID.TID 0000.0001) // =======================================================
(PID.TID 0000.0001) // End MONITOR dynamic field statistics
(PID.TID 0000.0001) // =======================================================
time,SST,SSS,fu,fv,Q,E-P,i0,i1,a,b =   2.6352E+06  1.8845E-01  3.4563E+01 -2.4681E-02 -3.6786E-02  2.5270E+02  0.0000E+00     1     2  5.1667E-01  4.8333E-01
time,fu0,fu1,fu =   2.6352E+06 -3.5633E-02 -1.4435E-02 -2.4681E-02  5.1667E-01  4.8333E-01
 cg2d: Sum(rhs),rhsMax =  -1.26745836048769E-13  1.18834274509296E+01
(PID.TID 0000.0001)                    cg2d_init_res =    3.43510383162301E-01
(PID.TID 0000.0001)                       cg2d_iters =    24
(PID.TID 0000.0001)                         cg2d_res =    4.72059051517399E-14
(PID.TID 0000.0001) // =======================================================
(PID.TID 0000.0001) // Begin MONITOR dynamic field statistics
(PID.TID 0000.0001) // =======================================================
(PID.TID 0000.0001) %MON time_tsnumber                =                    62
(PID.TID 0000.0001) %MON time_secondsf                =   2.6784000000000E+06
(PID.TID 0000.0001) %MON dynstat_eta_max              =   1.4051853655724E+00
(PID.TID 0000.0001) %MON dynstat_eta_min              =  -1.2927187731743E+00
(PID.TID 0000.0001) %MON dynstat_eta_mean             =  -1.0996034533699E-16
(PID.TID 0000.0001) %MON dynstat_eta_sd               =   4.1883132178088E-01
(PID.TID 0000.0001) %MON dynstat_eta_del2             =   1.9437892410387E-02
(PID.TID 0000.0001) %MON dynstat_uvel_max             =   2.0381175480660E-01
(PID.TID 0000.0001) %MON dynstat_uvel_min             =  -1.8641870040268E-01
(PID.TID 0000.0001) %MON dynstat_uvel_mean            =  -5.3816277780292E-04
(PID.TID 0000.0001) %MON dynstat_uvel_sd              =   1.8007384173828E-02
(PID.TID 0000.0001) %MON dynstat_uvel_del2            =   5.1694702903879E-03
(PID.TID 0000.0001) %MON dynstat_vvel_max             =   1.6572692611123E-01
(PID.TID 0000.0001) %MON dynstat_vvel_min             =  -1.4410868724045E-01
(PID.TID 0000.0001) %MON dynstat_vvel_mean            =  -1.9226354120497E-03
(PID.TID 0000.0001) %MON dynstat_vvel_sd              =   1.5161192911325E-02
(PID.TID 0000.0001) %MON dynstat_vvel_del2            =   4.7534407311992E-03
(PID.TID 0000.0001) %MON dynstat_wvel_max             =   3.4359250321562E-04
(PID.TID 0000.0001) %MON dynstat_wvel_min             =  -2.1862339517755E-04
(PID.TID 0000.0001) %MON dynstat_wvel_mean            =   1.5541061615149E-22
(PID.TID 0000.0001) %MON dynstat_wvel_sd              =   2.6272784487729E-05
(PID.TID 0000.0001) %MON dynstat_wvel_del2            =   1.0466916746233E-05
(PID.TID 0000.0001) %MON dynstat_theta_max            =   2.9832599742174E+01
(PID.TID 0000.0001) %MON dynstat_theta_min            =  -1.9606228513242E+00
(PID.TID 0000.0001) %MON dynstat_theta_mean           =   3.5922124162868E+00
(PID.TID 0000.0001) %MON dynstat_theta_sd             =   4.3417674492365E+00
(PID.TID 0000.0001) %MON dynstat_theta_del2           =   1.3084363781572E-01
(PID.TID 0000.0001) %MON dynstat_salt_max             =   3.7389810213124E+01
(PID.TID 0000.0001) %MON dynstat_salt_min             =   2.9792463772611E+01
(PID.TID 0000.0001) %MON dynstat_salt_mean            =   3.4716201894233E+01
(PID.TID 0000.0001) %MON dynstat_salt_sd              =   2.9387057910650E-01
(PID.TID 0000.0001) %MON dynstat_salt_del2            =   2.3938740531318E-02
(PID.TID 0000.0001) %MON advcfl_uvel_max              =   3.7361686849280E-02
(PID.TID 0000.0001) %MON advcfl_vvel_max              =   1.6099041901536E-02
(PID.TID 0000.0001) %MON advcfl_wvel_max              =   1.8712296609974E-01
(PID.TID 0000.0001) %MON advcfl_W_hf_max              =   1.6920744409923E-01
(PID.TID 0000.0001) %MON pe_b_mean                    =   2.2447061940613E-04
(PID.TID 0000.0001) %MON ke_max                       =   1.9824128270678E-02
(PID.TID 0000.0001) %MON ke_mean                      =   2.5230503576255E-04
(PID.TID 0000.0001) %MON ke_vol                       =   1.3226782436723E+18
(PID.TID 0000.0001) %MON vort_r_min                   =  -1.1031313152583E-06
(PID.TID 0000.0001) %MON vort_r_max                   =   7.1003038263343E-07
(PID.TID 0000.0001) %MON vort_a_mean                  =  -2.5205768451165E-05
(PID.TID 0000.0001) %MON vort_a_sd                    =   7.3403278444673E-05
(PID.TID 0000.0001) %MON vort_p_mean                  =  -3.1758668370227E-05
(PID.TID 0000.0001) %MON vort_p_sd                    =   1.3126319456699E-04
(PID.TID 0000.0001) %MON surfExpan_theta_mean         =   1.1487539108546E-05
(PID.TID 0000.0001) %MON surfExpan_salt_mean          =   3.8242244082110E-08
(PID.TID 0000.0001) // =======================================================
(PID.TID 0000.0001) // End MONITOR dynamic field statistics
(PID.TID 0000.0001) // =======================================================
time,SST,SSS,fu,fv,Q,E-P,i0,i1,a,b =   2.6784E+06  1.6361E-01  3.4558E+01 -2.4327E-02 -3.6125E-02  2.5228E+02  0.0000E+00     1     2  5.3333E-01  4.6667E-01
time,fu0,fu1,fu =   2.6784E+06 -3.5633E-02 -1.4435E-02 -2.4327E-02  5.3333E-01  4.6667E-01
 cg2d: Sum(rhs),rhsMax =  -1.77136083578944E-13  1.21703384101710E+01
(PID.TID 0000.0001)                    cg2d_init_res =    3.24125028251255E-01
(PID.TID 0000.0001)                       cg2d_iters =    24
(PID.TID 0000.0001)                         cg2d_res =    4.58165816455498E-14
(PID.TID 0000.0001) // =======================================================
(PID.TID 0000.0001) // Begin MONITOR dynamic field statistics
(PID.TID 0000.0001) // =======================================================
(PID.TID 0000.0001) %MON time_tsnumber                =                    63
(PID.TID 0000.0001) %MON time_secondsf                =   2.7216000000000E+06
(PID.TID 0000.0001) %MON dynstat_eta_max              =   1.4386673305968E+00
(PID.TID 0000.0001) %MON dynstat_eta_min              =  -1.2832395089644E+00
(PID.TID 0000.0001) %MON dynstat_eta_mean             =   1.4037356924191E-16
(PID.TID 0000.0001) %MON dynstat_eta_sd               =   4.2016058839338E-01
(PID.TID 0000.0001) %MON dynstat_eta_del2             =   1.9618477739700E-02
(PID.TID 0000.0001) %MON dynstat_uvel_max             =   2.0549297830337E-01
(PID.TID 0000.0001) %MON dynstat_uvel_min             =  -1.8399665155159E-01
(PID.TID 0000.0001) %MON dynstat_uvel_mean            =  -4.1244607819022E-04
(PID.TID 0000.0001) %MON dynstat_uvel_sd              =   1.8217926943420E-02
(PID.TID 0000.0001) %MON dynstat_uvel_del2            =   5.1547421288295E-03
(PID.TID 0000.0001) %MON dynstat_vvel_max             =   1.6652454203816E-01
(PID.TID 0000.0001) %MON dynstat_vvel_min             =  -1.4475242806120E-01
(PID.TID 0000.0001) %MON dynstat_vvel_mean            =  -2.0185941683394E-03
(PID.TID 0000.0001) %MON dynstat_vvel_sd              =   1.5168183574010E-02
(PID.TID 0000.0001) %MON dynstat_vvel_del2            =   4.7308172170833E-03
(PID.TID 0000.0001) %MON dynstat_wvel_max             =   3.4685628075574E-04
(PID.TID 0000.0001) %MON dynstat_wvel_min             =  -2.1072969484190E-04
(PID.TID 0000.0001) %MON dynstat_wvel_mean            =   8.0448280700947E-22
(PID.TID 0000.0001) %MON dynstat_wvel_sd              =   2.6063618871520E-05
(PID.TID 0000.0001) %MON dynstat_wvel_del2            =   1.0359406890116E-05
(PID.TID 0000.0001) %MON dynstat_theta_max            =   2.9810615978806E+01
(PID.TID 0000.0001) %MON dynstat_theta_min            =  -1.9607548179333E+00
(PID.TID 0000.0001) %MON dynstat_theta_mean           =   3.5921204078542E+00
(PID.TID 0000.0001) %MON dynstat_theta_sd             =   4.3415234758185E+00
(PID.TID 0000.0001) %MON dynstat_theta_del2           =   1.3070869102202E-01
(PID.TID 0000.0001) %MON dynstat_salt_max             =   3.7390098572148E+01
(PID.TID 0000.0001) %MON dynstat_salt_min             =   2.9791162801675E+01
(PID.TID 0000.0001) %MON dynstat_salt_mean            =   3.4716197917126E+01
(PID.TID 0000.0001) %MON dynstat_salt_sd              =   2.9390036970316E-01
(PID.TID 0000.0001) %MON dynstat_salt_del2            =   2.3899620116926E-02
(PID.TID 0000.0001) %MON advcfl_uvel_max              =   3.7669879798550E-02
(PID.TID 0000.0001) %MON advcfl_vvel_max              =   1.6176523892726E-02
(PID.TID 0000.0001) %MON advcfl_wvel_max              =   1.6942749242802E-01
(PID.TID 0000.0001) %MON advcfl_W_hf_max              =   1.5280481025488E-01
(PID.TID 0000.0001) %MON pe_b_mean                    =   2.2589770844364E-04
(PID.TID 0000.0001) %MON ke_max                       =   1.9661756528883E-02
(PID.TID 0000.0001) %MON ke_mean                      =   2.5598076765098E-04
(PID.TID 0000.0001) %MON ke_vol                       =   1.3226782436723E+18
(PID.TID 0000.0001) %MON vort_r_min                   =  -1.1047120436550E-06
(PID.TID 0000.0001) %MON vort_r_max                   =   7.0918213564413E-07
(PID.TID 0000.0001) %MON vort_a_mean                  =  -2.5205768417634E-05
(PID.TID 0000.0001) %MON vort_a_sd                    =   7.3403301747284E-05
(PID.TID 0000.0001) %MON vort_p_mean                  =  -3.1758668327979E-05
(PID.TID 0000.0001) %MON vort_p_sd                    =   1.3126315695890E-04
(PID.TID 0000.0001) %MON surfExpan_theta_mean         =   1.2005644229484E-05
(PID.TID 0000.0001) %MON surfExpan_salt_mean          =   2.2564047227176E-07
(PID.TID 0000.0001) // =======================================================
(PID.TID 0000.0001) // End MONITOR dynamic field statistics
(PID.TID 0000.0001) // =======================================================
time,SST,SSS,fu,fv,Q,E-P,i0,i1,a,b =   2.7216E+06  1.3877E-01  3.4553E+01 -2.3974E-02 -3.5465E-02  2.5186E+02  0.0000E+00     1     2  5.5000E-01  4.5000E-01
time,fu0,fu1,fu =   2.7216E+06 -3.5633E-02 -1.4435E-02 -2.3974E-02  5.5000E-01  4.5000E-01
 cg2d: Sum(rhs),rhsMax =  -9.29534227367412E-14  1.23086915131039E+01
(PID.TID 0000.0001)                    cg2d_init_res =    3.11872192880050E-01
(PID.TID 0000.0001)                       cg2d_iters =    24
(PID.TID 0000.0001)                         cg2d_res =    5.25837540380523E-14
(PID.TID 0000.0001) // =======================================================
(PID.TID 0000.0001) // Begin MONITOR dynamic field statistics
(PID.TID 0000.0001) // =======================================================
(PID.TID 0000.0001) %MON time_tsnumber                =                    64
(PID.TID 0000.0001) %MON time_secondsf                =   2.7648000000000E+06
(PID.TID 0000.0001) %MON dynstat_eta_max              =   1.4548491470409E+00
(PID.TID 0000.0001) %MON dynstat_eta_min              =  -1.3063780429479E+00
(PID.TID 0000.0001) %MON dynstat_eta_mean             =   3.0485064947440E-17
(PID.TID 0000.0001) %MON dynstat_eta_sd               =   4.2152466143107E-01
(PID.TID 0000.0001) %MON dynstat_eta_del2             =   1.9762605635752E-02
(PID.TID 0000.0001) %MON dynstat_uvel_max             =   2.0550748307475E-01
(PID.TID 0000.0001) %MON dynstat_uvel_min             =  -1.8141444173134E-01
(PID.TID 0000.0001) %MON dynstat_uvel_mean            =  -2.9328006782309E-04
(PID.TID 0000.0001) %MON dynstat_uvel_sd              =   1.8426291679825E-02
(PID.TID 0000.0001) %MON dynstat_uvel_del2            =   5.1418340076503E-03
(PID.TID 0000.0001) %MON dynstat_vvel_max             =   1.6988862539226E-01
(PID.TID 0000.0001) %MON dynstat_vvel_min             =  -1.4524916299072E-01
(PID.TID 0000.0001) %MON dynstat_vvel_mean            =  -2.0900158278911E-03
(PID.TID 0000.0001) %MON dynstat_vvel_sd              =   1.5173031600130E-02
(PID.TID 0000.0001) %MON dynstat_vvel_del2            =   4.7108654814136E-03
(PID.TID 0000.0001) %MON dynstat_wvel_max             =   3.4995850955338E-04
(PID.TID 0000.0001) %MON dynstat_wvel_min             =  -2.0727823260611E-04
(PID.TID 0000.0001) %MON dynstat_wvel_mean            =  -8.9308192569102E-22
(PID.TID 0000.0001) %MON dynstat_wvel_sd              =   2.5861023739839E-05
(PID.TID 0000.0001) %MON dynstat_wvel_del2            =   1.0258135288574E-05
(PID.TID 0000.0001) %MON dynstat_theta_max            =   2.9777679141586E+01
(PID.TID 0000.0001) %MON dynstat_theta_min            =  -1.9606758403210E+00
(PID.TID 0000.0001) %MON dynstat_theta_mean           =   3.5920222383927E+00
(PID.TID 0000.0001) %MON dynstat_theta_sd             =   4.3412684445568E+00
(PID.TID 0000.0001) %MON dynstat_theta_del2           =   1.3056909813903E-01
(PID.TID 0000.0001) %MON dynstat_salt_max             =   3.7390377814720E+01
(PID.TID 0000.0001) %MON dynstat_salt_min             =   2.9789784279262E+01
(PID.TID 0000.0001) %MON dynstat_salt_mean            =   3.4716191817663E+01
(PID.TID 0000.0001) %MON dynstat_salt_sd              =   2.9392670757239E-01
(PID.TID 0000.0001) %MON dynstat_salt_del2            =   2.3861569794233E-02
(PID.TID 0000.0001) %MON advcfl_uvel_max              =   3.7672538736092E-02
(PID.TID 0000.0001) %MON advcfl_vvel_max              =   1.6503317613871E-02
(PID.TID 0000.0001) %MON advcfl_wvel_max              =   1.4718384394420E-01
(PID.TID 0000.0001) %MON advcfl_W_hf_max              =   1.3220221594198E-01
(PID.TID 0000.0001) %MON pe_b_mean                    =   2.2736686656878E-04
(PID.TID 0000.0001) %MON ke_max                       =   1.9461174734514E-02
(PID.TID 0000.0001) %MON ke_mean                      =   2.5960919847900E-04
(PID.TID 0000.0001) %MON ke_vol                       =   1.3226782436723E+18
(PID.TID 0000.0001) %MON vort_r_min                   =  -1.1047051683594E-06
(PID.TID 0000.0001) %MON vort_r_max                   =   7.0703376292577E-07
(PID.TID 0000.0001) %MON vort_a_mean                  =  -2.5205768382151E-05
(PID.TID 0000.0001) %MON vort_a_sd                    =   7.3403323718862E-05
(PID.TID 0000.0001) %MON vort_p_mean                  =  -3.1758668283270E-05
(PID.TID 0000.0001) %MON vort_p_sd                    =   1.3126311738980E-04
(PID.TID 0000.0001) %MON surfExpan_theta_mean         =   1.2534655744201E-05
(PID.TID 0000.0001) %MON surfExpan_salt_mean          =   4.1247749122867E-07
(PID.TID 0000.0001) // =======================================================
(PID.TID 0000.0001) // End MONITOR dynamic field statistics
(PID.TID 0000.0001) // =======================================================
time,SST,SSS,fu,fv,Q,E-P,i0,i1,a,b =   2.7648E+06  1.1393E-01  3.4548E+01 -2.3621E-02 -3.4805E-02  2.5144E+02  0.0000E+00     1     2  5.6667E-01  4.3333E-01
time,fu0,fu1,fu =   2.7648E+06 -3.5633E-02 -1.4435E-02 -2.3621E-02  5.6667E-01  4.3333E-01
 cg2d: Sum(rhs),rhsMax =   1.87128090800570E-13  1.23029132244287E+01
(PID.TID 0000.0001)                    cg2d_init_res =    3.07221071457737E-01
(PID.TID 0000.0001)                       cg2d_iters =    24
(PID.TID 0000.0001)                         cg2d_res =    4.72427593261401E-14
(PID.TID 0000.0001) // =======================================================
(PID.TID 0000.0001) // Begin MONITOR dynamic field statistics
(PID.TID 0000.0001) // =======================================================
(PID.TID 0000.0001) %MON time_tsnumber                =                    65
(PID.TID 0000.0001) %MON time_secondsf                =   2.8080000000000E+06
(PID.TID 0000.0001) %MON dynstat_eta_max              =   1.4542402089472E+00
(PID.TID 0000.0001) %MON dynstat_eta_min              =  -1.3379011664656E+00
(PID.TID 0000.0001) %MON dynstat_eta_mean             =   1.9657579276363E-16
(PID.TID 0000.0001) %MON dynstat_eta_sd               =   4.2289203660568E-01
(PID.TID 0000.0001) %MON dynstat_eta_del2             =   1.9834660484751E-02
(PID.TID 0000.0001) %MON dynstat_uvel_max             =   2.0385089091774E-01
(PID.TID 0000.0001) %MON dynstat_uvel_min             =  -1.7867979448501E-01
(PID.TID 0000.0001) %MON dynstat_uvel_mean            =  -1.8095090082055E-04
(PID.TID 0000.0001) %MON dynstat_uvel_sd              =   1.8626068128894E-02
(PID.TID 0000.0001) %MON dynstat_uvel_del2            =   5.1298557782392E-03
(PID.TID 0000.0001) %MON dynstat_vvel_max             =   1.7292136094966E-01
(PID.TID 0000.0001) %MON dynstat_vvel_min             =  -1.4561088367622E-01
(PID.TID 0000.0001) %MON dynstat_vvel_mean            =  -2.1378378124430E-03
(PID.TID 0000.0001) %MON dynstat_vvel_sd              =   1.5179654282985E-02
(PID.TID 0000.0001) %MON dynstat_vvel_del2            =   4.6932723560696E-03
(PID.TID 0000.0001) %MON dynstat_wvel_max             =   3.5291165899458E-04
(PID.TID 0000.0001) %MON dynstat_wvel_min             =  -2.1148387294659E-04
(PID.TID 0000.0001) %MON dynstat_wvel_mean            =   2.8497176680034E-22
(PID.TID 0000.0001) %MON dynstat_wvel_sd              =   2.5669946171175E-05
(PID.TID 0000.0001) %MON dynstat_wvel_del2            =   1.0162316809135E-05
(PID.TID 0000.0001) %MON dynstat_theta_max            =   2.9733636775106E+01
(PID.TID 0000.0001) %MON dynstat_theta_min            =  -1.9603754023162E+00
(PID.TID 0000.0001) %MON dynstat_theta_mean           =   3.5919181155465E+00
(PID.TID 0000.0001) %MON dynstat_theta_sd             =   4.3409996116484E+00
(PID.TID 0000.0001) %MON dynstat_theta_del2           =   1.3041222747836E-01
(PID.TID 0000.0001) %MON dynstat_salt_max             =   3.7390656914212E+01
(PID.TID 0000.0001) %MON dynstat_salt_min             =   2.9788328476636E+01
(PID.TID 0000.0001) %MON dynstat_salt_mean            =   3.4716183734489E+01
(PID.TID 0000.0001) %MON dynstat_salt_sd              =   2.9394886481242E-01
(PID.TID 0000.0001) %MON dynstat_salt_del2            =   2.3822185291538E-02
(PID.TID 0000.0001) %MON advcfl_uvel_max              =   3.7368861073016E-02
(PID.TID 0000.0001) %MON advcfl_vvel_max              =   1.6797923553658E-02
(PID.TID 0000.0001) %MON advcfl_wvel_max              =   1.2111798440365E-01
(PID.TID 0000.0001) %MON advcfl_W_hf_max              =   1.0807193286089E-01
(PID.TID 0000.0001) %MON pe_b_mean                    =   2.2884436049323E-04
(PID.TID 0000.0001) %MON ke_max                       =   1.9223527052700E-02
(PID.TID 0000.0001) %MON ke_mean                      =   2.6312893794476E-04
(PID.TID 0000.0001) %MON ke_vol                       =   1.3226782436723E+18
(PID.TID 0000.0001) %MON vort_r_min                   =  -1.1030553871996E-06
(PID.TID 0000.0001) %MON vort_r_max                   =   7.0359205920265E-07
(PID.TID 0000.0001) %MON vort_a_mean                  =  -2.5205768344929E-05
(PID.TID 0000.0001) %MON vort_a_sd                    =   7.3403344280124E-05
(PID.TID 0000.0001) %MON vort_p_mean                  =  -3.1758668236372E-05
(PID.TID 0000.0001) %MON vort_p_sd                    =   1.3126307689385E-04
(PID.TID 0000.0001) %MON surfExpan_theta_mean         =   1.3058291788647E-05
(PID.TID 0000.0001) %MON surfExpan_salt_mean          =   5.9275458357830E-07
(PID.TID 0000.0001) // =======================================================
(PID.TID 0000.0001) // End MONITOR dynamic field statistics
(PID.TID 0000.0001) // =======================================================
time,SST,SSS,fu,fv,Q,E-P,i0,i1,a,b =   2.8080E+06  8.9094E-02  3.4543E+01 -2.3267E-02 -3.4144E-02  2.5102E+02  0.0000E+00     1     2  5.8333E-01  4.1667E-01
time,fu0,fu1,fu =   2.8080E+06 -3.5633E-02 -1.4435E-02 -2.3267E-02  5.8333E-01  4.1667E-01
 cg2d: Sum(rhs),rhsMax =  -2.63580823833820E-13  1.21609674796430E+01
(PID.TID 0000.0001)                    cg2d_init_res =    3.10461814096007E-01
(PID.TID 0000.0001)                       cg2d_iters =    24
(PID.TID 0000.0001)                         cg2d_res =    3.88300439701080E-14
(PID.TID 0000.0001) // =======================================================
(PID.TID 0000.0001) // Begin MONITOR dynamic field statistics
(PID.TID 0000.0001) // =======================================================
(PID.TID 0000.0001) %MON time_tsnumber                =                    66
(PID.TID 0000.0001) %MON time_secondsf                =   2.8512000000000E+06
(PID.TID 0000.0001) %MON dynstat_eta_max              =   1.4377616031207E+00
(PID.TID 0000.0001) %MON dynstat_eta_min              =  -1.3654879314675E+00
(PID.TID 0000.0001) %MON dynstat_eta_mean             =  -3.5109347965918E-17
(PID.TID 0000.0001) %MON dynstat_eta_sd               =   4.2424334111789E-01
(PID.TID 0000.0001) %MON dynstat_eta_del2             =   1.9832229320412E-02
(PID.TID 0000.0001) %MON dynstat_uvel_max             =   2.0054285035174E-01
(PID.TID 0000.0001) %MON dynstat_uvel_min             =  -1.7579968347546E-01
(PID.TID 0000.0001) %MON dynstat_uvel_mean            =  -7.5553346277526E-05
(PID.TID 0000.0001) %MON dynstat_uvel_sd              =   1.8811005763573E-02
(PID.TID 0000.0001) %MON dynstat_uvel_del2            =   5.1193003043746E-03
(PID.TID 0000.0001) %MON dynstat_vvel_max             =   1.7561326410381E-01
(PID.TID 0000.0001) %MON dynstat_vvel_min             =  -1.4693264441100E-01
(PID.TID 0000.0001) %MON dynstat_vvel_mean            =  -2.1633087054344E-03
(PID.TID 0000.0001) %MON dynstat_vvel_sd              =   1.5191227107359E-02
(PID.TID 0000.0001) %MON dynstat_vvel_del2            =   4.6775958191963E-03
(PID.TID 0000.0001) %MON dynstat_wvel_max             =   3.5572506375232E-04
(PID.TID 0000.0001) %MON dynstat_wvel_min             =  -2.1749036552727E-04
(PID.TID 0000.0001) %MON dynstat_wvel_mean            =   2.4289664239243E-22
(PID.TID 0000.0001) %MON dynstat_wvel_sd              =   2.5493668235486E-05
(PID.TID 0000.0001) %MON dynstat_wvel_del2            =   1.0076281822170E-05
(PID.TID 0000.0001) %MON dynstat_theta_max            =   2.9699318230184E+01
(PID.TID 0000.0001) %MON dynstat_theta_min            =  -1.9598446651296E+00
(PID.TID 0000.0001) %MON dynstat_theta_mean           =   3.5918083957645E+00
(PID.TID 0000.0001) %MON dynstat_theta_sd             =   4.3407155975889E+00
(PID.TID 0000.0001) %MON dynstat_theta_del2           =   1.3024435153026E-01
(PID.TID 0000.0001) %MON dynstat_salt_max             =   3.7390942590980E+01
(PID.TID 0000.0001) %MON dynstat_salt_min             =   2.9786797146076E+01
(PID.TID 0000.0001) %MON dynstat_salt_mean            =   3.4716173851577E+01
(PID.TID 0000.0001) %MON dynstat_salt_sd              =   2.9396613844669E-01
(PID.TID 0000.0001) %MON dynstat_salt_del2            =   2.3785221555215E-02
(PID.TID 0000.0001) %MON advcfl_uvel_max              =   3.6762448671390E-02
(PID.TID 0000.0001) %MON advcfl_vvel_max              =   1.7059420358615E-02
(PID.TID 0000.0001) %MON advcfl_wvel_max              =   1.0320074556698E-01
(PID.TID 0000.0001) %MON advcfl_W_hf_max              =   1.0377035422535E-01
(PID.TID 0000.0001) %MON pe_b_mean                    =   2.3030919056150E-04
(PID.TID 0000.0001) %MON ke_max                       =   1.8949991063208E-02
(PID.TID 0000.0001) %MON ke_mean                      =   2.6646909423033E-04
(PID.TID 0000.0001) %MON ke_vol                       =   1.3226782436723E+18
(PID.TID 0000.0001) %MON vort_r_min                   =  -1.0997215230536E-06
(PID.TID 0000.0001) %MON vort_r_max                   =   6.9886584866222E-07
(PID.TID 0000.0001) %MON vort_a_mean                  =  -2.5205768306277E-05
(PID.TID 0000.0001) %MON vort_a_sd                    =   7.3403363392905E-05
(PID.TID 0000.0001) %MON vort_p_mean                  =  -3.1758668187671E-05
(PID.TID 0000.0001) %MON vort_p_sd                    =   1.3126303649817E-04
(PID.TID 0000.0001) %MON surfExpan_theta_mean         =   1.3556329562011E-05
(PID.TID 0000.0001) %MON surfExpan_salt_mean          =   7.5965570218924E-07
(PID.TID 0000.0001) // =======================================================
(PID.TID 0000.0001) // End MONITOR dynamic field statistics
(PID.TID 0000.0001) // =======================================================
time,SST,SSS,fu,fv,Q,E-P,i0,i1,a,b =   2.8512E+06  6.4256E-02  3.4538E+01 -2.2914E-02 -3.3484E-02  2.5060E+02  0.0000E+00     1     2  6.0000E-01  4.0000E-01
time,fu0,fu1,fu =   2.8512E+06 -3.5633E-02 -1.4435E-02 -2.2914E-02  6.0000E-01  4.0000E-01
 cg2d: Sum(rhs),rhsMax =  -4.05231403988182E-15  1.18939190513037E+01
(PID.TID 0000.0001)                    cg2d_init_res =    3.21493048761292E-01
(PID.TID 0000.0001)                       cg2d_iters =    24
(PID.TID 0000.0001)                         cg2d_res =    4.58717593779841E-14
(PID.TID 0000.0001) // =======================================================
(PID.TID 0000.0001) // Begin MONITOR dynamic field statistics
(PID.TID 0000.0001) // =======================================================
(PID.TID 0000.0001) %MON time_tsnumber                =                    67
(PID.TID 0000.0001) %MON time_secondsf                =   2.8944000000000E+06
(PID.TID 0000.0001) %MON dynstat_eta_max              =   1.4066956545531E+00
(PID.TID 0000.0001) %MON dynstat_eta_min              =  -1.3880627362780E+00
(PID.TID 0000.0001) %MON dynstat_eta_mean             =  -9.0380885378045E-17
(PID.TID 0000.0001) %MON dynstat_eta_sd               =   4.2557303942552E-01
(PID.TID 0000.0001) %MON dynstat_eta_del2             =   1.9804760172253E-02
(PID.TID 0000.0001) %MON dynstat_uvel_max             =   1.9562543593744E-01
(PID.TID 0000.0001) %MON dynstat_uvel_min             =  -1.7278030039190E-01
(PID.TID 0000.0001) %MON dynstat_uvel_mean            =   2.2985317982292E-05
(PID.TID 0000.0001) %MON dynstat_uvel_sd              =   1.8975311023325E-02
(PID.TID 0000.0001) %MON dynstat_uvel_del2            =   5.1096807900097E-03
(PID.TID 0000.0001) %MON dynstat_vvel_max             =   1.7795511302197E-01
(PID.TID 0000.0001) %MON dynstat_vvel_min             =  -1.4879466907271E-01
(PID.TID 0000.0001) %MON dynstat_vvel_mean            =  -2.1679479875820E-03
(PID.TID 0000.0001) %MON dynstat_vvel_sd              =   1.5209786216568E-02
(PID.TID 0000.0001) %MON dynstat_vvel_del2            =   4.6646008699254E-03
(PID.TID 0000.0001) %MON dynstat_wvel_max             =   3.5840527136552E-04
(PID.TID 0000.0001) %MON dynstat_wvel_min             =  -2.2538062165188E-04
(PID.TID 0000.0001) %MON dynstat_wvel_mean            =   3.7102789415307E-22
(PID.TID 0000.0001) %MON dynstat_wvel_sd              =   2.5333196452763E-05
(PID.TID 0000.0001) %MON dynstat_wvel_del2            =   9.9988323425642E-06
(PID.TID 0000.0001) %MON dynstat_theta_max            =   2.9701264014346E+01
(PID.TID 0000.0001) %MON dynstat_theta_min            =  -1.9590768640295E+00
(PID.TID 0000.0001) %MON dynstat_theta_mean           =   3.5916936271692E+00
(PID.TID 0000.0001) %MON dynstat_theta_sd             =   4.3404166721440E+00
(PID.TID 0000.0001) %MON dynstat_theta_del2           =   1.3006780063651E-01
(PID.TID 0000.0001) %MON dynstat_salt_max             =   3.7391239057476E+01
(PID.TID 0000.0001) %MON dynstat_salt_min             =   2.9785193399526E+01
(PID.TID 0000.0001) %MON dynstat_salt_mean            =   3.4716162418029E+01
(PID.TID 0000.0001) %MON dynstat_salt_sd              =   2.9397893048570E-01
(PID.TID 0000.0001) %MON dynstat_salt_del2            =   2.3750724816760E-02
(PID.TID 0000.0001) %MON advcfl_uvel_max              =   3.5861014415895E-02
(PID.TID 0000.0001) %MON advcfl_vvel_max              =   1.7286912201643E-02
(PID.TID 0000.0001) %MON advcfl_wvel_max              =   1.1758838574215E-01
(PID.TID 0000.0001) %MON advcfl_W_hf_max              =   1.1884107159236E-01
(PID.TID 0000.0001) %MON pe_b_mean                    =   2.3175516099968E-04
(PID.TID 0000.0001) %MON ke_max                       =   1.8641792166469E-02
(PID.TID 0000.0001) %MON ke_mean                      =   2.6954967432316E-04
(PID.TID 0000.0001) %MON ke_vol                       =   1.3226782436723E+18
(PID.TID 0000.0001) %MON vort_r_min                   =  -1.0946760430806E-06
(PID.TID 0000.0001) %MON vort_r_max                   =   6.9286640089744E-07
(PID.TID 0000.0001) %MON vort_a_mean                  =  -2.5205768266577E-05
(PID.TID 0000.0001) %MON vort_a_sd                    =   7.3403381056418E-05
(PID.TID 0000.0001) %MON vort_p_mean                  =  -3.1758668137650E-05
(PID.TID 0000.0001) %MON vort_p_sd                    =   1.3126299718680E-04
(PID.TID 0000.0001) %MON surfExpan_theta_mean         =   1.4015512060025E-05
(PID.TID 0000.0001) %MON surfExpan_salt_mean          =   9.0867633348739E-07
(PID.TID 0000.0001) // =======================================================
(PID.TID 0000.0001) // End MONITOR dynamic field statistics
(PID.TID 0000.0001) // =======================================================
time,SST,SSS,fu,fv,Q,E-P,i0,i1,a,b =   2.8944E+06  3.9418E-02  3.4534E+01 -2.2561E-02 -3.2824E-02  2.5018E+02  0.0000E+00     1     2  6.1667E-01  3.8333E-01
time,fu0,fu1,fu =   2.8944E+06 -3.5633E-02 -1.4435E-02 -2.2561E-02  6.1667E-01  3.8333E-01
 cg2d: Sum(rhs),rhsMax =   3.80057096904807E-13  1.15154298986515E+01
(PID.TID 0000.0001)                    cg2d_init_res =    3.39778951601476E-01
(PID.TID 0000.0001)                       cg2d_iters =    24
(PID.TID 0000.0001)                         cg2d_res =    5.74831788062829E-14
(PID.TID 0000.0001) // =======================================================
(PID.TID 0000.0001) // Begin MONITOR dynamic field statistics
(PID.TID 0000.0001) // =======================================================
(PID.TID 0000.0001) %MON time_tsnumber                =                    68
(PID.TID 0000.0001) %MON time_secondsf                =   2.9376000000000E+06
(PID.TID 0000.0001) %MON dynstat_eta_max              =   1.3626276036724E+00
(PID.TID 0000.0001) %MON dynstat_eta_min              =  -1.4048664981785E+00
(PID.TID 0000.0001) %MON dynstat_eta_mean             =  -9.8182525488943E-17
(PID.TID 0000.0001) %MON dynstat_eta_sd               =   4.2688881038405E-01
(PID.TID 0000.0001) %MON dynstat_eta_del2             =   1.9752765126239E-02
(PID.TID 0000.0001) %MON dynstat_uvel_max             =   1.8916598546332E-01
(PID.TID 0000.0001) %MON dynstat_uvel_min             =  -1.6966048976316E-01
(PID.TID 0000.0001) %MON dynstat_uvel_mean            =   1.1487609397675E-04
(PID.TID 0000.0001) %MON dynstat_uvel_sd              =   1.9113900325827E-02
(PID.TID 0000.0001) %MON dynstat_uvel_del2            =   5.1014021748057E-03
(PID.TID 0000.0001) %MON dynstat_vvel_max             =   1.7993808619058E-01
(PID.TID 0000.0001) %MON dynstat_vvel_min             =  -1.5045538449120E-01
(PID.TID 0000.0001) %MON dynstat_vvel_mean            =  -2.1535015758231E-03
(PID.TID 0000.0001) %MON dynstat_vvel_sd              =   1.5236031058247E-02
(PID.TID 0000.0001) %MON dynstat_vvel_del2            =   4.6554252635783E-03
(PID.TID 0000.0001) %MON dynstat_wvel_max             =   3.6095554282905E-04
(PID.TID 0000.0001) %MON dynstat_wvel_min             =  -2.3300937296060E-04
(PID.TID 0000.0001) %MON dynstat_wvel_mean            =  -4.5729132318608E-22
(PID.TID 0000.0001) %MON dynstat_wvel_sd              =   2.5187129871715E-05
(PID.TID 0000.0001) %MON dynstat_wvel_del2            =   9.9305883776660E-06
(PID.TID 0000.0001) %MON dynstat_theta_max            =   2.9703577826977E+01
(PID.TID 0000.0001) %MON dynstat_theta_min            =  -1.9580676689700E+00
(PID.TID 0000.0001) %MON dynstat_theta_mean           =   3.5915744598381E+00
(PID.TID 0000.0001) %MON dynstat_theta_sd             =   4.3401011251486E+00
(PID.TID 0000.0001) %MON dynstat_theta_del2           =   1.2989699306421E-01
(PID.TID 0000.0001) %MON dynstat_salt_max             =   3.7391547953599E+01
(PID.TID 0000.0001) %MON dynstat_salt_min             =   2.9783521665126E+01
(PID.TID 0000.0001) %MON dynstat_salt_mean            =   3.4716149706624E+01
(PID.TID 0000.0001) %MON dynstat_salt_sd              =   2.9398490749511E-01
(PID.TID 0000.0001) %MON dynstat_salt_del2            =   2.3712928687014E-02
(PID.TID 0000.0001) %MON advcfl_uvel_max              =   3.4676902311756E-02
(PID.TID 0000.0001) %MON advcfl_vvel_max              =   1.7479542143441E-02
(PID.TID 0000.0001) %MON advcfl_wvel_max              =   1.2992973913247E-01
(PID.TID 0000.0001) %MON advcfl_W_hf_max              =   1.3165135819985E-01
(PID.TID 0000.0001) %MON pe_b_mean                    =   2.3319044039029E-04
(PID.TID 0000.0001) %MON ke_max                       =   1.8418870762499E-02
(PID.TID 0000.0001) %MON ke_mean                      =   2.7228434827323E-04
(PID.TID 0000.0001) %MON ke_vol                       =   1.3226782436723E+18
(PID.TID 0000.0001) %MON vort_r_min                   =  -1.0879015285600E-06
(PID.TID 0000.0001) %MON vort_r_max                   =   6.8560795168294E-07
(PID.TID 0000.0001) %MON vort_a_mean                  =  -2.5205768226265E-05
(PID.TID 0000.0001) %MON vort_a_sd                    =   7.3403397301943E-05
(PID.TID 0000.0001) %MON vort_p_mean                  =  -3.1758668086858E-05
(PID.TID 0000.0001) %MON vort_p_sd                    =   1.3126295986990E-04
(PID.TID 0000.0001) %MON surfExpan_theta_mean         =   1.4408122611636E-05
(PID.TID 0000.0001) %MON surfExpan_salt_mean          =   1.0315071107627E-06
(PID.TID 0000.0001) // =======================================================
(PID.TID 0000.0001) // End MONITOR dynamic field statistics
(PID.TID 0000.0001) // =======================================================
time,SST,SSS,fu,fv,Q,E-P,i0,i1,a,b =   2.9376E+06  1.4580E-02  3.4529E+01 -2.2207E-02 -3.2163E-02  2.4975E+02  0.0000E+00     1     2  6.3333E-01  3.6667E-01
time,fu0,fu1,fu =   2.9376E+06 -3.5633E-02 -1.4435E-02 -2.2207E-02  6.3333E-01  3.6667E-01
 cg2d: Sum(rhs),rhsMax =  -4.76702011198427E-14  1.10412062683584E+01
(PID.TID 0000.0001)                    cg2d_init_res =    3.64462144713484E-01
(PID.TID 0000.0001)                       cg2d_iters =    24
(PID.TID 0000.0001)                         cg2d_res =    6.66344544124803E-14
(PID.TID 0000.0001) // =======================================================
(PID.TID 0000.0001) // Begin MONITOR dynamic field statistics
(PID.TID 0000.0001) // =======================================================
(PID.TID 0000.0001) %MON time_tsnumber                =                    69
(PID.TID 0000.0001) %MON time_secondsf                =   2.9808000000000E+06
(PID.TID 0000.0001) %MON dynstat_eta_max              =   1.3073816296531E+00
(PID.TID 0000.0001) %MON dynstat_eta_min              =  -1.4154930693487E+00
(PID.TID 0000.0001) %MON dynstat_eta_mean             =   9.4823342673574E-17
(PID.TID 0000.0001) %MON dynstat_eta_sd               =   4.2820887583574E-01
(PID.TID 0000.0001) %MON dynstat_eta_del2             =   1.9657943787411E-02
(PID.TID 0000.0001) %MON dynstat_uvel_max             =   1.8660352509796E-01
(PID.TID 0000.0001) %MON dynstat_uvel_min             =  -1.6969135681245E-01
(PID.TID 0000.0001) %MON dynstat_uvel_mean            =   2.0043451871859E-04
(PID.TID 0000.0001) %MON dynstat_uvel_sd              =   1.9222603846457E-02
(PID.TID 0000.0001) %MON dynstat_uvel_del2            =   5.0947194708330E-03
(PID.TID 0000.0001) %MON dynstat_vvel_max             =   1.8155388057158E-01
(PID.TID 0000.0001) %MON dynstat_vvel_min             =  -1.5191169129631E-01
(PID.TID 0000.0001) %MON dynstat_vvel_mean            =  -2.1218932408619E-03
(PID.TID 0000.0001) %MON dynstat_vvel_sd              =   1.5269331388991E-02
(PID.TID 0000.0001) %MON dynstat_vvel_del2            =   4.6490400903015E-03
(PID.TID 0000.0001) %MON dynstat_wvel_max             =   3.6337662443730E-04
(PID.TID 0000.0001) %MON dynstat_wvel_min             =  -2.3934973009447E-04
(PID.TID 0000.0001) %MON dynstat_wvel_mean            =  -9.7118078034894E-22
(PID.TID 0000.0001) %MON dynstat_wvel_sd              =   2.5051936539186E-05
(PID.TID 0000.0001) %MON dynstat_wvel_del2            =   9.8681672584620E-06
(PID.TID 0000.0001) %MON dynstat_theta_max            =   2.9706284646880E+01
(PID.TID 0000.0001) %MON dynstat_theta_min            =  -1.9568141952884E+00
(PID.TID 0000.0001) %MON dynstat_theta_mean           =   3.5914518229208E+00
(PID.TID 0000.0001) %MON dynstat_theta_sd             =   4.3397740299002E+00
(PID.TID 0000.0001) %MON dynstat_theta_del2           =   1.2971312812477E-01
(PID.TID 0000.0001) %MON dynstat_salt_max             =   3.7391868449230E+01
(PID.TID 0000.0001) %MON dynstat_salt_min             =   2.9781787517477E+01
(PID.TID 0000.0001) %MON dynstat_salt_mean            =   3.4716136086633E+01
(PID.TID 0000.0001) %MON dynstat_salt_sd              =   2.9398816115746E-01
(PID.TID 0000.0001) %MON dynstat_salt_del2            =   2.3679882424900E-02
(PID.TID 0000.0001) %MON advcfl_uvel_max              =   3.3226297607123E-02
(PID.TID 0000.0001) %MON advcfl_vvel_max              =   1.7636503610442E-02
(PID.TID 0000.0001) %MON advcfl_wvel_max              =   1.4049406388651E-01
(PID.TID 0000.0001) %MON advcfl_W_hf_max              =   1.4191444134776E-01
(PID.TID 0000.0001) %MON pe_b_mean                    =   2.3463485674263E-04
(PID.TID 0000.0001) %MON ke_max                       =   1.8358787831670E-02
(PID.TID 0000.0001) %MON ke_mean                      =   2.7458526297757E-04
(PID.TID 0000.0001) %MON ke_vol                       =   1.3226782436723E+18
(PID.TID 0000.0001) %MON vort_r_min                   =  -1.0794037784470E-06
(PID.TID 0000.0001) %MON vort_r_max                   =   6.7710802086778E-07
(PID.TID 0000.0001) %MON vort_a_mean                  =  -2.5205768185821E-05
(PID.TID 0000.0001) %MON vort_a_sd                    =   7.3403412186146E-05
(PID.TID 0000.0001) %MON vort_p_mean                  =  -3.1758668035899E-05
(PID.TID 0000.0001) %MON vort_p_sd                    =   1.3126292533639E-04
(PID.TID 0000.0001) %MON surfExpan_theta_mean         =   1.4756020090259E-05
(PID.TID 0000.0001) %MON surfExpan_salt_mean          =   1.1334711814835E-06
(PID.TID 0000.0001) // =======================================================
(PID.TID 0000.0001) // End MONITOR dynamic field statistics
(PID.TID 0000.0001) // =======================================================
time,SST,SSS,fu,fv,Q,E-P,i0,i1,a,b =   2.9808E+06 -1.0258E-02  3.4524E+01 -2.1854E-02 -3.1503E-02  2.4933E+02  0.0000E+00     1     2  6.5000E-01  3.5000E-01
time,fu0,fu1,fu =   2.9808E+06 -3.5633E-02 -1.4435E-02 -2.1854E-02  6.5000E-01  3.5000E-01
 cg2d: Sum(rhs),rhsMax =   2.45067854898195E-13  1.04884340536770E+01
(PID.TID 0000.0001)                    cg2d_init_res =    3.94529823843333E-01
(PID.TID 0000.0001)                       cg2d_iters =    24
(PID.TID 0000.0001)                         cg2d_res =    7.47433729231966E-14
(PID.TID 0000.0001) // =======================================================
(PID.TID 0000.0001) // Begin MONITOR dynamic field statistics
(PID.TID 0000.0001) // =======================================================
(PID.TID 0000.0001) %MON time_tsnumber                =                    70
(PID.TID 0000.0001) %MON time_secondsf                =   3.0240000000000E+06
(PID.TID 0000.0001) %MON dynstat_eta_max              =   1.2429553811896E+00
(PID.TID 0000.0001) %MON dynstat_eta_min              =  -1.4198994444349E+00
(PID.TID 0000.0001) %MON dynstat_eta_mean             =  -5.3898639370612E-17
(PID.TID 0000.0001) %MON dynstat_eta_sd               =   4.2955781564615E-01
(PID.TID 0000.0001) %MON dynstat_eta_del2             =   1.9560087741715E-02
(PID.TID 0000.0001) %MON dynstat_uvel_max             =   1.8460467939861E-01
(PID.TID 0000.0001) %MON dynstat_uvel_min             =  -1.6954833389760E-01
(PID.TID 0000.0001) %MON dynstat_uvel_mean            =   2.8004445089504E-04
(PID.TID 0000.0001) %MON dynstat_uvel_sd              =   1.9298301302316E-02
(PID.TID 0000.0001) %MON dynstat_uvel_del2            =   5.0883552678228E-03
(PID.TID 0000.0001) %MON dynstat_vvel_max             =   1.8279488126268E-01
(PID.TID 0000.0001) %MON dynstat_vvel_min             =  -1.5316325654505E-01
(PID.TID 0000.0001) %MON dynstat_vvel_mean            =  -2.0751667326526E-03
(PID.TID 0000.0001) %MON dynstat_vvel_sd              =   1.5307925767536E-02
(PID.TID 0000.0001) %MON dynstat_vvel_del2            =   4.6456639745671E-03
(PID.TID 0000.0001) %MON dynstat_wvel_max             =   3.6566803872122E-04
(PID.TID 0000.0001) %MON dynstat_wvel_min             =  -2.4433601389030E-04
(PID.TID 0000.0001) %MON dynstat_wvel_mean            =   2.6209606270984E-22
(PID.TID 0000.0001) %MON dynstat_wvel_sd              =   2.4922577748134E-05
(PID.TID 0000.0001) %MON dynstat_wvel_del2            =   9.8128640566739E-06
(PID.TID 0000.0001) %MON dynstat_theta_max            =   2.9709395204571E+01
(PID.TID 0000.0001) %MON dynstat_theta_min            =  -1.9553075529507E+00
(PID.TID 0000.0001) %MON dynstat_theta_mean           =   3.5913262362092E+00
(PID.TID 0000.0001) %MON dynstat_theta_sd             =   4.3394363917974E+00
(PID.TID 0000.0001) %MON dynstat_theta_del2           =   1.2954590609148E-01
(PID.TID 0000.0001) %MON dynstat_salt_max             =   3.7392197525044E+01
(PID.TID 0000.0001) %MON dynstat_salt_min             =   2.9779997430230E+01
(PID.TID 0000.0001) %MON dynstat_salt_mean            =   3.4716121782365E+01
(PID.TID 0000.0001) %MON dynstat_salt_sd              =   2.9398741007399E-01
(PID.TID 0000.0001) %MON dynstat_salt_del2            =   2.3646932498112E-02
(PID.TID 0000.0001) %MON advcfl_uvel_max              =   3.2140128193462E-02
(PID.TID 0000.0001) %MON advcfl_vvel_max              =   1.7757056875954E-02
(PID.TID 0000.0001) %MON advcfl_wvel_max              =   1.4825594568900E-01
(PID.TID 0000.0001) %MON advcfl_W_hf_max              =   1.4941466365793E-01
(PID.TID 0000.0001) %MON pe_b_mean                    =   2.3611547448729E-04
(PID.TID 0000.0001) %MON ke_max                       =   1.8284901809268E-02
(PID.TID 0000.0001) %MON ke_mean                      =   2.7636915318283E-04
(PID.TID 0000.0001) %MON ke_vol                       =   1.3226782436723E+18
(PID.TID 0000.0001) %MON vort_r_min                   =  -1.0692128790802E-06
(PID.TID 0000.0001) %MON vort_r_max                   =   6.6738789530784E-07
(PID.TID 0000.0001) %MON vort_a_mean                  =  -2.5205768145873E-05
(PID.TID 0000.0001) %MON vort_a_sd                    =   7.3403425782251E-05
(PID.TID 0000.0001) %MON vort_p_mean                  =  -3.1758667985566E-05
(PID.TID 0000.0001) %MON vort_p_sd                    =   1.3126289422049E-04
(PID.TID 0000.0001) %MON surfExpan_theta_mean         =   1.5039794423771E-05
(PID.TID 0000.0001) %MON surfExpan_salt_mean          =   1.2083383358309E-06
(PID.TID 0000.0001) // =======================================================
(PID.TID 0000.0001) // End MONITOR dynamic field statistics
(PID.TID 0000.0001) // =======================================================
time,SST,SSS,fu,fv,Q,E-P,i0,i1,a,b =   3.0240E+06 -3.5096E-02  3.4519E+01 -2.1501E-02 -3.0843E-02  2.4891E+02  0.0000E+00     1     2  6.6667E-01  3.3333E-01
time,fu0,fu1,fu =   3.0240E+06 -3.5633E-02 -1.4435E-02 -2.1501E-02  6.6667E-01  3.3333E-01
 cg2d: Sum(rhs),rhsMax =   2.46358489164322E-13  9.87521804042984E+00
(PID.TID 0000.0001)                    cg2d_init_res =    4.28946533546232E-01
(PID.TID 0000.0001)                       cg2d_iters =    24
(PID.TID 0000.0001)                         cg2d_res =    8.22695891641768E-14
(PID.TID 0000.0001) // =======================================================
(PID.TID 0000.0001) // Begin MONITOR dynamic field statistics
(PID.TID 0000.0001) // =======================================================
(PID.TID 0000.0001) %MON time_tsnumber                =                    71
(PID.TID 0000.0001) %MON time_secondsf                =   3.0672000000000E+06
(PID.TID 0000.0001) %MON dynstat_eta_max              =   1.1714548692191E+00
(PID.TID 0000.0001) %MON dynstat_eta_min              =  -1.4183898682096E+00
(PID.TID 0000.0001) %MON dynstat_eta_mean             =   9.0955399525127E-17
(PID.TID 0000.0001) %MON dynstat_eta_sd               =   4.3096162140372E-01
(PID.TID 0000.0001) %MON dynstat_eta_del2             =   1.9434289601556E-02
(PID.TID 0000.0001) %MON dynstat_uvel_max             =   1.8984060791072E-01
(PID.TID 0000.0001) %MON dynstat_uvel_min             =  -1.6923698929311E-01
(PID.TID 0000.0001) %MON dynstat_uvel_mean            =   3.5412384297384E-04
(PID.TID 0000.0001) %MON dynstat_uvel_sd              =   1.9339002528076E-02
(PID.TID 0000.0001) %MON dynstat_uvel_del2            =   5.0814913968196E-03
(PID.TID 0000.0001) %MON dynstat_vvel_max             =   1.8365439570575E-01
(PID.TID 0000.0001) %MON dynstat_vvel_min             =  -1.5421197400895E-01
(PID.TID 0000.0001) %MON dynstat_vvel_mean            =  -2.0154263137931E-03
(PID.TID 0000.0001) %MON dynstat_vvel_sd              =   1.5349248835604E-02
(PID.TID 0000.0001) %MON dynstat_vvel_del2            =   4.6429270699696E-03
(PID.TID 0000.0001) %MON dynstat_wvel_max             =   3.6782925796695E-04
(PID.TID 0000.0001) %MON dynstat_wvel_min             =  -2.4791745947824E-04
(PID.TID 0000.0001) %MON dynstat_wvel_mean            =  -1.4116293995454E-22
(PID.TID 0000.0001) %MON dynstat_wvel_sd              =   2.4793351526992E-05
(PID.TID 0000.0001) %MON dynstat_wvel_del2            =   9.7619500250336E-06
(PID.TID 0000.0001) %MON dynstat_theta_max            =   2.9712907418225E+01
(PID.TID 0000.0001) %MON dynstat_theta_min            =  -1.9532593172839E+00
(PID.TID 0000.0001) %MON dynstat_theta_mean           =   3.5911986102104E+00
(PID.TID 0000.0001) %MON dynstat_theta_sd             =   4.3390881378286E+00
(PID.TID 0000.0001) %MON dynstat_theta_del2           =   1.2935951981738E-01
(PID.TID 0000.0001) %MON dynstat_salt_max             =   3.7392530408898E+01
(PID.TID 0000.0001) %MON dynstat_salt_min             =   2.9778158523985E+01
(PID.TID 0000.0001) %MON dynstat_salt_mean            =   3.4716107146453E+01
(PID.TID 0000.0001) %MON dynstat_salt_sd              =   2.9398068687365E-01
(PID.TID 0000.0001) %MON dynstat_salt_del2            =   2.3608398623535E-02
(PID.TID 0000.0001) %MON advcfl_uvel_max              =   3.1539243027064E-02
(PID.TID 0000.0001) %MON advcfl_vvel_max              =   1.7840551811620E-02
(PID.TID 0000.0001) %MON advcfl_wvel_max              =   1.5307037313664E-01
(PID.TID 0000.0001) %MON advcfl_W_hf_max              =   1.5401318948168E-01
(PID.TID 0000.0001) %MON pe_b_mean                    =   2.3766125882963E-04
(PID.TID 0000.0001) %MON ke_max                       =   1.8195221121751E-02
(PID.TID 0000.0001) %MON ke_mean                      =   2.7756397956038E-04
(PID.TID 0000.0001) %MON ke_vol                       =   1.3226782436723E+18
(PID.TID 0000.0001) %MON vort_r_min                   =  -1.0573859702031E-06
(PID.TID 0000.0001) %MON vort_r_max                   =   6.5647317966598E-07
(PID.TID 0000.0001) %MON vort_a_mean                  =  -2.5205768106994E-05
(PID.TID 0000.0001) %MON vort_a_sd                    =   7.3403438174775E-05
(PID.TID 0000.0001) %MON vort_p_mean                  =  -3.1758667936580E-05
(PID.TID 0000.0001) %MON vort_p_sd                    =   1.3126286696591E-04
(PID.TID 0000.0001) %MON surfExpan_theta_mean         =   1.5258735042675E-05
(PID.TID 0000.0001) %MON surfExpan_salt_mean          =   1.2550986945981E-06
(PID.TID 0000.0001) // =======================================================
(PID.TID 0000.0001) // End MONITOR dynamic field statistics
(PID.TID 0000.0001) // =======================================================
time,SST,SSS,fu,fv,Q,E-P,i0,i1,a,b =   3.0672E+06 -5.9934E-02  3.4514E+01 -2.1147E-02 -3.0182E-02  2.4849E+02  0.0000E+00     1     2  6.8333E-01  3.1667E-01
time,fu0,fu1,fu =   3.0672E+06 -3.5633E-02 -1.4435E-02 -2.1147E-02  6.8333E-01  3.1667E-01
 cg2d: Sum(rhs),rhsMax =  -7.31359417471822E-14  9.22003991047087E+00
(PID.TID 0000.0001)                    cg2d_init_res =    4.66718483031034E-01
(PID.TID 0000.0001)                       cg2d_iters =    24
(PID.TID 0000.0001)                         cg2d_res =    8.88302308012146E-14
(PID.TID 0000.0001) // =======================================================
(PID.TID 0000.0001) // Begin MONITOR dynamic field statistics
(PID.TID 0000.0001) // =======================================================
(PID.TID 0000.0001) %MON time_tsnumber                =                    72
(PID.TID 0000.0001) %MON time_secondsf                =   3.1104000000000E+06
(PID.TID 0000.0001) %MON dynstat_eta_max              =   1.0950314777012E+00
(PID.TID 0000.0001) %MON dynstat_eta_min              =  -1.4115779365742E+00
(PID.TID 0000.0001) %MON dynstat_eta_mean             =   8.6952694396083E-17
(PID.TID 0000.0001) %MON dynstat_eta_sd               =   4.3244294705488E-01
(PID.TID 0000.0001) %MON dynstat_eta_del2             =   1.9320417277423E-02
(PID.TID 0000.0001) %MON dynstat_uvel_max             =   1.9424974530143E-01
(PID.TID 0000.0001) %MON dynstat_uvel_min             =  -1.6876426774977E-01
(PID.TID 0000.0001) %MON dynstat_uvel_mean            =   4.2311058731110E-04
(PID.TID 0000.0001) %MON dynstat_uvel_sd              =   1.9343851555436E-02
(PID.TID 0000.0001) %MON dynstat_uvel_del2            =   5.0742255433625E-03
(PID.TID 0000.0001) %MON dynstat_vvel_max             =   1.8412679362321E-01
(PID.TID 0000.0001) %MON dynstat_vvel_min             =  -1.5506145912118E-01
(PID.TID 0000.0001) %MON dynstat_vvel_mean            =  -1.9448075655587E-03
(PID.TID 0000.0001) %MON dynstat_vvel_sd              =   1.5390328891094E-02
(PID.TID 0000.0001) %MON dynstat_vvel_del2            =   4.6422518053419E-03
(PID.TID 0000.0001) %MON dynstat_wvel_max             =   3.6986019809863E-04
(PID.TID 0000.0001) %MON dynstat_wvel_min             =  -2.5005890024864E-04
(PID.TID 0000.0001) %MON dynstat_wvel_mean            =   3.2948591810618E-22
(PID.TID 0000.0001) %MON dynstat_wvel_sd              =   2.4658896489289E-05
(PID.TID 0000.0001) %MON dynstat_wvel_del2            =   9.7098976881793E-06
(PID.TID 0000.0001) %MON dynstat_theta_max            =   2.9716810219121E+01
(PID.TID 0000.0001) %MON dynstat_theta_min            =  -1.9505732363616E+00
(PID.TID 0000.0001) %MON dynstat_theta_mean           =   3.5910695413455E+00
(PID.TID 0000.0001) %MON dynstat_theta_sd             =   4.3387369358129E+00
(PID.TID 0000.0001) %MON dynstat_theta_del2           =   1.2922999474468E-01
(PID.TID 0000.0001) %MON dynstat_salt_max             =   3.7392860999380E+01
(PID.TID 0000.0001) %MON dynstat_salt_min             =   2.9776278290763E+01
(PID.TID 0000.0001) %MON dynstat_salt_mean            =   3.4716092478214E+01
(PID.TID 0000.0001) %MON dynstat_salt_sd              =   2.9397187262378E-01
(PID.TID 0000.0001) %MON dynstat_salt_del2            =   2.3577474930110E-02
(PID.TID 0000.0001) %MON advcfl_uvel_max              =   3.1063101958763E-02
(PID.TID 0000.0001) %MON advcfl_vvel_max              =   1.7886441481126E-02
(PID.TID 0000.0001) %MON advcfl_wvel_max              =   1.5487254719534E-01
(PID.TID 0000.0001) %MON advcfl_W_hf_max              =   1.5565010710982E-01
(PID.TID 0000.0001) %MON pe_b_mean                    =   2.3929787216572E-04
(PID.TID 0000.0001) %MON ke_max                       =   1.8087722323053E-02
(PID.TID 0000.0001) %MON ke_mean                      =   2.7811492146420E-04
(PID.TID 0000.0001) %MON ke_vol                       =   1.3226782436723E+18
(PID.TID 0000.0001) %MON vort_r_min                   =  -1.0440079158778E-06
(PID.TID 0000.0001) %MON vort_r_max                   =   6.4439429969135E-07
(PID.TID 0000.0001) %MON vort_a_mean                  =  -2.5205768069785E-05
(PID.TID 0000.0001) %MON vort_a_sd                    =   7.3403449454575E-05
(PID.TID 0000.0001) %MON vort_p_mean                  =  -3.1758667889697E-05
(PID.TID 0000.0001) %MON vort_p_sd                    =   1.3126284389214E-04
(PID.TID 0000.0001) %MON surfExpan_theta_mean         =   1.5411651265963E-05
(PID.TID 0000.0001) %MON surfExpan_salt_mean          =   1.2733234236632E-06
(PID.TID 0000.0001) // =======================================================
(PID.TID 0000.0001) // End MONITOR dynamic field statistics
(PID.TID 0000.0001) // =======================================================
time,SST,SSS,fu,fv,Q,E-P,i0,i1,a,b =   3.1104E+06 -8.4772E-02  3.4509E+01 -2.0794E-02 -2.9522E-02  2.4807E+02  0.0000E+00     1     2  7.0000E-01  3.0000E-01
time,fu0,fu1,fu =   3.1104E+06 -3.5633E-02 -1.4435E-02 -2.0794E-02  7.0000E-01  3.0000E-01
 cg2d: Sum(rhs),rhsMax =   2.02310390662319E-13  8.54125177075485E+00
(PID.TID 0000.0001)                    cg2d_init_res =    5.06880829886160E-01
(PID.TID 0000.0001)                       cg2d_iters =    24
(PID.TID 0000.0001)                         cg2d_res =    9.00636231725066E-14
(PID.TID 0000.0001) // =======================================================
(PID.TID 0000.0001) // Begin MONITOR dynamic field statistics
(PID.TID 0000.0001) // =======================================================
(PID.TID 0000.0001) %MON time_tsnumber                =                    73
(PID.TID 0000.0001) %MON time_secondsf                =   3.1536000000000E+06
(PID.TID 0000.0001) %MON dynstat_eta_max              =   1.0158229872712E+00
(PID.TID 0000.0001) %MON dynstat_eta_min              =  -1.4003317600546E+00
(PID.TID 0000.0001) %MON dynstat_eta_mean             =  -2.2823360270429E-16
(PID.TID 0000.0001) %MON dynstat_eta_sd               =   4.3401687649973E-01
(PID.TID 0000.0001) %MON dynstat_eta_del2             =   1.9231597658748E-02
(PID.TID 0000.0001) %MON dynstat_uvel_max             =   1.9748084612349E-01
(PID.TID 0000.0001) %MON dynstat_uvel_min             =  -1.6813810784211E-01
(PID.TID 0000.0001) %MON dynstat_uvel_mean            =   4.8739738651480E-04
(PID.TID 0000.0001) %MON dynstat_uvel_sd              =   1.9313090186962E-02
(PID.TID 0000.0001) %MON dynstat_uvel_del2            =   5.0662645744897E-03
(PID.TID 0000.0001) %MON dynstat_vvel_max             =   1.8420768448887E-01
(PID.TID 0000.0001) %MON dynstat_vvel_min             =  -1.5571662178309E-01
(PID.TID 0000.0001) %MON dynstat_vvel_mean            =  -1.8653738252189E-03
(PID.TID 0000.0001) %MON dynstat_vvel_sd              =   1.5428185216994E-02
(PID.TID 0000.0001) %MON dynstat_vvel_del2            =   4.6413172473206E-03
(PID.TID 0000.0001) %MON dynstat_wvel_max             =   3.7176170746550E-04
(PID.TID 0000.0001) %MON dynstat_wvel_min             =  -2.5074138027848E-04
(PID.TID 0000.0001) %MON dynstat_wvel_mean            =   2.5218777121071E-23
(PID.TID 0000.0001) %MON dynstat_wvel_sd              =   2.4514859368669E-05
(PID.TID 0000.0001) %MON dynstat_wvel_del2            =   9.6542556407011E-06
(PID.TID 0000.0001) %MON dynstat_theta_max            =   2.9721156212157E+01
(PID.TID 0000.0001) %MON dynstat_theta_min            =  -1.9473554112622E+00
(PID.TID 0000.0001) %MON dynstat_theta_mean           =   3.5909399479420E+00
(PID.TID 0000.0001) %MON dynstat_theta_sd             =   4.3383843895349E+00
(PID.TID 0000.0001) %MON dynstat_theta_del2           =   1.2911271963542E-01
(PID.TID 0000.0001) %MON dynstat_salt_max             =   3.7393182400573E+01
(PID.TID 0000.0001) %MON dynstat_salt_min             =   2.9774364316864E+01
(PID.TID 0000.0001) %MON dynstat_salt_mean            =   3.4716078102267E+01
(PID.TID 0000.0001) %MON dynstat_salt_sd              =   2.9395991284949E-01
(PID.TID 0000.0001) %MON dynstat_salt_del2            =   2.3550638570206E-02
(PID.TID 0000.0001) %MON advcfl_uvel_max              =   3.1054875292715E-02
(PID.TID 0000.0001) %MON advcfl_vvel_max              =   1.7894299380058E-02
(PID.TID 0000.0001) %MON advcfl_wvel_max              =   1.5367696975880E-01
(PID.TID 0000.0001) %MON advcfl_W_hf_max              =   1.5434344049312E-01
(PID.TID 0000.0001) %MON pe_b_mean                    =   2.4104295035386E-04
(PID.TID 0000.0001) %MON ke_max                       =   1.8253805166230E-02
(PID.TID 0000.0001) %MON ke_mean                      =   2.7798916559333E-04
(PID.TID 0000.0001) %MON ke_vol                       =   1.3226782436723E+18
(PID.TID 0000.0001) %MON vort_r_min                   =  -1.0291910500459E-06
(PID.TID 0000.0001) %MON vort_r_max                   =   6.5110084911731E-07
(PID.TID 0000.0001) %MON vort_a_mean                  =  -2.5205768034849E-05
(PID.TID 0000.0001) %MON vort_a_sd                    =   7.3403459705065E-05
(PID.TID 0000.0001) %MON vort_p_mean                  =  -3.1758667845679E-05
(PID.TID 0000.0001) %MON vort_p_sd                    =   1.3126282502061E-04
(PID.TID 0000.0001) %MON surfExpan_theta_mean         =   1.5502814633837E-05
(PID.TID 0000.0001) %MON surfExpan_salt_mean          =   1.2639704426438E-06
(PID.TID 0000.0001) // =======================================================
(PID.TID 0000.0001) // End MONITOR dynamic field statistics
(PID.TID 0000.0001) // =======================================================
time,SST,SSS,fu,fv,Q,E-P,i0,i1,a,b =   3.1536E+06 -1.0961E-01  3.4504E+01 -2.0441E-02 -2.8862E-02  2.4765E+02  0.0000E+00     1     2  7.1667E-01  2.8333E-01
time,fu0,fu1,fu =   3.1536E+06 -3.5633E-02 -1.4435E-02 -2.0441E-02  7.1667E-01  2.8333E-01
 cg2d: Sum(rhs),rhsMax =  -2.27012852960229E-13  7.85660942262437E+00
(PID.TID 0000.0001)                    cg2d_init_res =    5.48481104797219E-01
(PID.TID 0000.0001)                       cg2d_iters =    24
(PID.TID 0000.0001)                         cg2d_res =    4.81059356221064E-14
(PID.TID 0000.0001) // =======================================================
(PID.TID 0000.0001) // Begin MONITOR dynamic field statistics
(PID.TID 0000.0001) // =======================================================
(PID.TID 0000.0001) %MON time_tsnumber                =                    74
(PID.TID 0000.0001) %MON time_secondsf                =   3.1968000000000E+06
(PID.TID 0000.0001) %MON dynstat_eta_max              =   9.3589924609294E-01
(PID.TID 0000.0001) %MON dynstat_eta_min              =  -1.3857048321286E+00
(PID.TID 0000.0001) %MON dynstat_eta_mean             =   2.0255394518875E-17
(PID.TID 0000.0001) %MON dynstat_eta_sd               =   4.3568827903428E-01
(PID.TID 0000.0001) %MON dynstat_eta_del2             =   1.9173075540963E-02
(PID.TID 0000.0001) %MON dynstat_uvel_max             =   1.9950835894478E-01
(PID.TID 0000.0001) %MON dynstat_uvel_min             =  -1.6736722944122E-01
(PID.TID 0000.0001) %MON dynstat_uvel_mean            =   5.4734903817914E-04
(PID.TID 0000.0001) %MON dynstat_uvel_sd              =   1.9247952211966E-02
(PID.TID 0000.0001) %MON dynstat_uvel_del2            =   5.0566211220585E-03
(PID.TID 0000.0001) %MON dynstat_vvel_max             =   1.8389406037896E-01
(PID.TID 0000.0001) %MON dynstat_vvel_min             =  -1.5618331538796E-01
(PID.TID 0000.0001) %MON dynstat_vvel_mean            =  -1.7791093786906E-03
(PID.TID 0000.0001) %MON dynstat_vvel_sd              =   1.5460171044191E-02
(PID.TID 0000.0001) %MON dynstat_vvel_del2            =   4.6386783335556E-03
(PID.TID 0000.0001) %MON dynstat_wvel_max             =   3.7353598770780E-04
(PID.TID 0000.0001) %MON dynstat_wvel_min             =  -2.4996266350262E-04
(PID.TID 0000.0001) %MON dynstat_wvel_mean            =  -5.7115704297689E-23
(PID.TID 0000.0001) %MON dynstat_wvel_sd              =   2.4358549628047E-05
(PID.TID 0000.0001) %MON dynstat_wvel_del2            =   9.5932542566980E-06
(PID.TID 0000.0001) %MON dynstat_theta_max            =   2.9726041907719E+01
(PID.TID 0000.0001) %MON dynstat_theta_min            =  -1.9436340944650E+00
(PID.TID 0000.0001) %MON dynstat_theta_mean           =   3.5908104565938E+00
(PID.TID 0000.0001) %MON dynstat_theta_sd             =   4.3380342575994E+00
(PID.TID 0000.0001) %MON dynstat_theta_del2           =   1.2898984386247E-01
(PID.TID 0000.0001) %MON dynstat_salt_max             =   3.7393487454164E+01
(PID.TID 0000.0001) %MON dynstat_salt_min             =   2.9772424019166E+01
(PID.TID 0000.0001) %MON dynstat_salt_mean            =   3.4716064291512E+01
(PID.TID 0000.0001) %MON dynstat_salt_sd              =   2.9394548278322E-01
(PID.TID 0000.0001) %MON dynstat_salt_del2            =   2.3523231296188E-02
(PID.TID 0000.0001) %MON advcfl_uvel_max              =   3.1036228851451E-02
(PID.TID 0000.0001) %MON advcfl_vvel_max              =   1.7863833312744E-02
(PID.TID 0000.0001) %MON advcfl_wvel_max              =   1.4957405739723E-01
(PID.TID 0000.0001) %MON advcfl_W_hf_max              =   1.5018573389613E-01
(PID.TID 0000.0001) %MON pe_b_mean                    =   2.4290304182360E-04
(PID.TID 0000.0001) %MON ke_max                       =   1.8746541517212E-02
(PID.TID 0000.0001) %MON ke_mean                      =   2.7717861423583E-04
(PID.TID 0000.0001) %MON ke_vol                       =   1.3226782436723E+18
(PID.TID 0000.0001) %MON vort_r_min                   =  -1.0130739725275E-06
(PID.TID 0000.0001) %MON vort_r_max                   =   6.5942488339840E-07
(PID.TID 0000.0001) %MON vort_a_mean                  =  -2.5205768002712E-05
(PID.TID 0000.0001) %MON vort_a_sd                    =   7.3403469005245E-05
(PID.TID 0000.0001) %MON vort_p_mean                  =  -3.1758667805187E-05
(PID.TID 0000.0001) %MON vort_p_sd                    =   1.3126281024416E-04
(PID.TID 0000.0001) %MON surfExpan_theta_mean         =   1.5535593222386E-05
(PID.TID 0000.0001) %MON surfExpan_salt_mean          =   1.2286729959173E-06
(PID.TID 0000.0001) // =======================================================
(PID.TID 0000.0001) // End MONITOR dynamic field statistics
(PID.TID 0000.0001) // =======================================================
time,SST,SSS,fu,fv,Q,E-P,i0,i1,a,b =   3.1968E+06 -1.3445E-01  3.4499E+01 -2.0088E-02 -2.8201E-02  2.4722E+02  0.0000E+00     1     2  7.3333E-01  2.6667E-01
time,fu0,fu1,fu =   3.1968E+06 -3.5633E-02 -1.4435E-02 -2.0088E-02  7.3333E-01  2.6667E-01
 cg2d: Sum(rhs),rhsMax =   6.11316552934227E-14  7.50280922717663E+00
(PID.TID 0000.0001)                    cg2d_init_res =    5.65336931022148E-01
(PID.TID 0000.0001)                       cg2d_iters =    24
(PID.TID 0000.0001)                         cg2d_res =    9.43481579446674E-14
(PID.TID 0000.0001) // =======================================================
(PID.TID 0000.0001) // Begin MONITOR dynamic field statistics
(PID.TID 0000.0001) // =======================================================
(PID.TID 0000.0001) %MON time_tsnumber                =                    75
(PID.TID 0000.0001) %MON time_secondsf                =   3.2400000000000E+06
(PID.TID 0000.0001) %MON dynstat_eta_max              =   9.2083889099376E-01
(PID.TID 0000.0001) %MON dynstat_eta_min              =  -1.3688613115075E+00
(PID.TID 0000.0001) %MON dynstat_eta_mean             =  -1.3594626092313E-18
(PID.TID 0000.0001) %MON dynstat_eta_sd               =   4.3745072002728E-01
(PID.TID 0000.0001) %MON dynstat_eta_del2             =   1.9116822285180E-02
(PID.TID 0000.0001) %MON dynstat_uvel_max             =   2.0032288677211E-01
(PID.TID 0000.0001) %MON dynstat_uvel_min             =  -1.6646055105109E-01
(PID.TID 0000.0001) %MON dynstat_uvel_mean            =   6.0327279276684E-04
(PID.TID 0000.0001) %MON dynstat_uvel_sd              =   1.9150529935991E-02
(PID.TID 0000.0001) %MON dynstat_uvel_del2            =   5.0458281861637E-03
(PID.TID 0000.0001) %MON dynstat_vvel_max             =   1.8318439750673E-01
(PID.TID 0000.0001) %MON dynstat_vvel_min             =  -1.5646802449924E-01
(PID.TID 0000.0001) %MON dynstat_vvel_mean            =  -1.6878588169718E-03
(PID.TID 0000.0001) %MON dynstat_vvel_sd              =   1.5484227186219E-02
(PID.TID 0000.0001) %MON dynstat_vvel_del2            =   4.6340313982352E-03
(PID.TID 0000.0001) %MON dynstat_wvel_max             =   3.7518688312123E-04
(PID.TID 0000.0001) %MON dynstat_wvel_min             =  -2.4854276857558E-04
(PID.TID 0000.0001) %MON dynstat_wvel_mean            =  -1.6066223631936E-22
(PID.TID 0000.0001) %MON dynstat_wvel_sd              =   2.4189335045725E-05
(PID.TID 0000.0001) %MON dynstat_wvel_del2            =   9.5339180271536E-06
(PID.TID 0000.0001) %MON dynstat_theta_max            =   2.9731308778558E+01
(PID.TID 0000.0001) %MON dynstat_theta_min            =  -1.9394434137185E+00
(PID.TID 0000.0001) %MON dynstat_theta_mean           =   3.5906817013075E+00
(PID.TID 0000.0001) %MON dynstat_theta_sd             =   4.3376895717632E+00
(PID.TID 0000.0001) %MON dynstat_theta_del2           =   1.2888893169766E-01
(PID.TID 0000.0001) %MON dynstat_salt_max             =   3.7393769237499E+01
(PID.TID 0000.0001) %MON dynstat_salt_min             =   2.9770464408378E+01
(PID.TID 0000.0001) %MON dynstat_salt_mean            =   3.4716051294270E+01
(PID.TID 0000.0001) %MON dynstat_salt_sd              =   2.9392908783746E-01
(PID.TID 0000.0001) %MON dynstat_salt_del2            =   2.3497159670234E-02
(PID.TID 0000.0001) %MON advcfl_uvel_max              =   3.1008605058632E-02
(PID.TID 0000.0001) %MON advcfl_vvel_max              =   1.7794895255518E-02
(PID.TID 0000.0001) %MON advcfl_wvel_max              =   1.4272412930162E-01
(PID.TID 0000.0001) %MON advcfl_W_hf_max              =   1.4333806122527E-01
(PID.TID 0000.0001) %MON pe_b_mean                    =   2.4487219351290E-04
(PID.TID 0000.0001) %MON ke_max                       =   1.9084218027162E-02
(PID.TID 0000.0001) %MON ke_mean                      =   2.7570048131507E-04
(PID.TID 0000.0001) %MON ke_vol                       =   1.3226782436723E+18
(PID.TID 0000.0001) %MON vort_r_min                   =  -9.9581825339776E-07
(PID.TID 0000.0001) %MON vort_r_max                   =   6.6786206128667E-07
(PID.TID 0000.0001) %MON vort_a_mean                  =  -2.5205767974028E-05
(PID.TID 0000.0001) %MON vort_a_sd                    =   7.3403477420046E-05
(PID.TID 0000.0001) %MON vort_p_mean                  =  -3.1758667769045E-05
(PID.TID 0000.0001) %MON vort_p_sd                    =   1.3126279929877E-04
(PID.TID 0000.0001) %MON surfExpan_theta_mean         =   1.5514121787145E-05
(PID.TID 0000.0001) %MON surfExpan_salt_mean          =   1.1696541812131E-06
(PID.TID 0000.0001) // =======================================================
(PID.TID 0000.0001) // End MONITOR dynamic field statistics
(PID.TID 0000.0001) // =======================================================
time,SST,SSS,fu,fv,Q,E-P,i0,i1,a,b =   3.2400E+06 -1.5929E-01  3.4494E+01 -1.9734E-02 -2.7541E-02  2.4680E+02  0.0000E+00     1     2  7.5000E-01  2.5000E-01
time,fu0,fu1,fu =   3.2400E+06 -3.5633E-02 -1.4435E-02 -1.9734E-02  7.5000E-01  2.5000E-01
 cg2d: Sum(rhs),rhsMax =   1.81590853465252E-13  7.40659063231971E+00
(PID.TID 0000.0001)                    cg2d_init_res =    5.57569685166480E-01
(PID.TID 0000.0001)                       cg2d_iters =    25
(PID.TID 0000.0001)                         cg2d_res =    2.46976383267421E-14
(PID.TID 0000.0001) // =======================================================
(PID.TID 0000.0001) // Begin MONITOR dynamic field statistics
(PID.TID 0000.0001) // =======================================================
(PID.TID 0000.0001) %MON time_tsnumber                =                    76
(PID.TID 0000.0001) %MON time_secondsf                =   3.2832000000000E+06
(PID.TID 0000.0001) %MON dynstat_eta_max              =   9.0917163635239E-01
(PID.TID 0000.0001) %MON dynstat_eta_min              =  -1.3509996018818E+00
(PID.TID 0000.0001) %MON dynstat_eta_mean             =   8.2436198851832E-17
(PID.TID 0000.0001) %MON dynstat_eta_sd               =   4.3928698224714E-01
(PID.TID 0000.0001) %MON dynstat_eta_del2             =   1.9052190367593E-02
(PID.TID 0000.0001) %MON dynstat_uvel_max             =   2.0288053179042E-01
(PID.TID 0000.0001) %MON dynstat_uvel_min             =  -1.6542714911898E-01
(PID.TID 0000.0001) %MON dynstat_uvel_mean            =   6.5539476186592E-04
(PID.TID 0000.0001) %MON dynstat_uvel_sd              =   1.9023604140617E-02
(PID.TID 0000.0001) %MON dynstat_uvel_del2            =   5.0329925540371E-03
(PID.TID 0000.0001) %MON dynstat_vvel_max             =   1.8207880507466E-01
(PID.TID 0000.0001) %MON dynstat_vvel_min             =  -1.5657758372323E-01
(PID.TID 0000.0001) %MON dynstat_vvel_mean            =  -1.5932921860520E-03
(PID.TID 0000.0001) %MON dynstat_vvel_sd              =   1.5499024103606E-02
(PID.TID 0000.0001) %MON dynstat_vvel_del2            =   4.6275072989612E-03
(PID.TID 0000.0001) %MON dynstat_wvel_max             =   3.7671996427525E-04
(PID.TID 0000.0001) %MON dynstat_wvel_min             =  -2.4904222526970E-04
(PID.TID 0000.0001) %MON dynstat_wvel_mean            =  -7.6036332785259E-22
(PID.TID 0000.0001) %MON dynstat_wvel_sd              =   2.4008290804355E-05
(PID.TID 0000.0001) %MON dynstat_wvel_del2            =   9.4737041678758E-06
(PID.TID 0000.0001) %MON dynstat_theta_max            =   2.9736868463778E+01
(PID.TID 0000.0001) %MON dynstat_theta_min            =  -1.9348239557155E+00
(PID.TID 0000.0001) %MON dynstat_theta_mean           =   3.5905542326260E+00
(PID.TID 0000.0001) %MON dynstat_theta_sd             =   4.3373532288675E+00
(PID.TID 0000.0001) %MON dynstat_theta_del2           =   1.2883326831970E-01
(PID.TID 0000.0001) %MON dynstat_salt_max             =   3.7393953851113E+01
(PID.TID 0000.0001) %MON dynstat_salt_min             =   2.9768491890363E+01
(PID.TID 0000.0001) %MON dynstat_salt_mean            =   3.4716039321195E+01
(PID.TID 0000.0001) %MON dynstat_salt_sd              =   2.9391150503460E-01
(PID.TID 0000.0001) %MON dynstat_salt_del2            =   2.3472689836611E-02
(PID.TID 0000.0001) %MON advcfl_uvel_max              =   3.0973444960699E-02
(PID.TID 0000.0001) %MON advcfl_vvel_max              =   1.7687495816528E-02
(PID.TID 0000.0001) %MON advcfl_wvel_max              =   1.4948249430652E-01
(PID.TID 0000.0001) %MON advcfl_W_hf_max              =   1.4183751436167E-01
(PID.TID 0000.0001) %MON pe_b_mean                    =   2.4693228060983E-04
(PID.TID 0000.0001) %MON ke_max                       =   1.9260778052473E-02
(PID.TID 0000.0001) %MON ke_mean                      =   2.7359552088848E-04
(PID.TID 0000.0001) %MON ke_vol                       =   1.3226782436723E+18
(PID.TID 0000.0001) %MON vort_r_min                   =  -9.7760246296788E-07
(PID.TID 0000.0001) %MON vort_r_max                   =   6.7626115853925E-07
(PID.TID 0000.0001) %MON vort_a_mean                  =  -2.5205767949217E-05
(PID.TID 0000.0001) %MON vort_a_sd                    =   7.3403484999793E-05
(PID.TID 0000.0001) %MON vort_p_mean                  =  -3.1758667737784E-05
(PID.TID 0000.0001) %MON vort_p_sd                    =   1.3126279165272E-04
(PID.TID 0000.0001) %MON surfExpan_theta_mean         =   1.5445190519584E-05
(PID.TID 0000.0001) %MON surfExpan_salt_mean          =   1.0906361018425E-06
(PID.TID 0000.0001) // =======================================================
(PID.TID 0000.0001) // End MONITOR dynamic field statistics
(PID.TID 0000.0001) // =======================================================
time,SST,SSS,fu,fv,Q,E-P,i0,i1,a,b =   3.2832E+06 -1.8412E-01  3.4490E+01 -1.9381E-02 -2.6880E-02  2.4638E+02  0.0000E+00     1     2  7.6667E-01  2.3333E-01
time,fu0,fu1,fu =   3.2832E+06 -3.5633E-02 -1.4435E-02 -1.9381E-02  7.6667E-01  2.3333E-01
 cg2d: Sum(rhs),rhsMax =   1.68018376989210E-13  8.12844726284960E+00
(PID.TID 0000.0001)                    cg2d_init_res =    4.89632242290405E-01
(PID.TID 0000.0001)                       cg2d_iters =    24
(PID.TID 0000.0001)                         cg2d_res =    9.78425566353730E-14
(PID.TID 0000.0001) // =======================================================
(PID.TID 0000.0001) // Begin MONITOR dynamic field statistics
(PID.TID 0000.0001) // =======================================================
(PID.TID 0000.0001) %MON time_tsnumber                =                    77
(PID.TID 0000.0001) %MON time_secondsf                =   3.3264000000000E+06
(PID.TID 0000.0001) %MON dynstat_eta_max              =   8.9505836991668E-01
(PID.TID 0000.0001) %MON dynstat_eta_min              =  -1.3332798640979E+00
(PID.TID 0000.0001) %MON dynstat_eta_mean             =  -1.1992399835200E-17
(PID.TID 0000.0001) %MON dynstat_eta_sd               =   4.4117100514187E-01
(PID.TID 0000.0001) %MON dynstat_eta_del2             =   1.9026924678143E-02
(PID.TID 0000.0001) %MON dynstat_uvel_max             =   2.0684506184314E-01
(PID.TID 0000.0001) %MON dynstat_uvel_min             =  -1.6427584703469E-01
(PID.TID 0000.0001) %MON dynstat_uvel_mean            =   7.0387415809865E-04
(PID.TID 0000.0001) %MON dynstat_uvel_sd              =   1.8870469780163E-02
(PID.TID 0000.0001) %MON dynstat_uvel_del2            =   5.0190586823043E-03
(PID.TID 0000.0001) %MON dynstat_vvel_max             =   1.8057911897436E-01
(PID.TID 0000.0001) %MON dynstat_vvel_min             =  -1.5651899501467E-01
(PID.TID 0000.0001) %MON dynstat_vvel_mean            =  -1.4968668978501E-03
(PID.TID 0000.0001) %MON dynstat_vvel_sd              =   1.5504003808055E-02
(PID.TID 0000.0001) %MON dynstat_vvel_del2            =   4.6180916959427E-03
(PID.TID 0000.0001) %MON dynstat_wvel_max             =   3.7814228757664E-04
(PID.TID 0000.0001) %MON dynstat_wvel_min             =  -2.4898929362277E-04
(PID.TID 0000.0001) %MON dynstat_wvel_mean            =  -2.3788299349944E-22
(PID.TID 0000.0001) %MON dynstat_wvel_sd              =   2.3818377323644E-05
(PID.TID 0000.0001) %MON dynstat_wvel_del2            =   9.4083146754078E-06
(PID.TID 0000.0001) %MON dynstat_theta_max            =   2.9742625448484E+01
(PID.TID 0000.0001) %MON dynstat_theta_min            =  -1.9305256148287E+00
(PID.TID 0000.0001) %MON dynstat_theta_mean           =   3.5904285372249E+00
(PID.TID 0000.0001) %MON dynstat_theta_sd             =   4.3370271607811E+00
(PID.TID 0000.0001) %MON dynstat_theta_del2           =   1.2877898820482E-01
(PID.TID 0000.0001) %MON dynstat_salt_max             =   3.7394128529847E+01
(PID.TID 0000.0001) %MON dynstat_salt_min             =   2.9766512113688E+01
(PID.TID 0000.0001) %MON dynstat_salt_mean            =   3.4716028532040E+01
(PID.TID 0000.0001) %MON dynstat_salt_sd              =   2.9389299192359E-01
(PID.TID 0000.0001) %MON dynstat_salt_del2            =   2.3452088026476E-02
(PID.TID 0000.0001) %MON advcfl_uvel_max              =   3.0932114458476E-02
(PID.TID 0000.0001) %MON advcfl_vvel_max              =   1.7541813337921E-02
(PID.TID 0000.0001) %MON advcfl_wvel_max              =   1.5284096748424E-01
(PID.TID 0000.0001) %MON advcfl_W_hf_max              =   1.4485350723505E-01
(PID.TID 0000.0001) %MON pe_b_mean                    =   2.4905491899635E-04
(PID.TID 0000.0001) %MON ke_max                       =   1.9356942634856E-02
(PID.TID 0000.0001) %MON ke_mean                      =   2.7092465936724E-04
(PID.TID 0000.0001) %MON ke_vol                       =   1.3226782436723E+18
(PID.TID 0000.0001) %MON vort_r_min                   =  -9.5861657726998E-07
(PID.TID 0000.0001) %MON vort_r_max                   =   6.8446295214601E-07
(PID.TID 0000.0001) %MON vort_a_mean                  =  -2.5205767928654E-05
(PID.TID 0000.0001) %MON vort_a_sd                    =   7.3403491778425E-05
(PID.TID 0000.0001) %MON vort_p_mean                  =  -3.1758667711876E-05
(PID.TID 0000.0001) %MON vort_p_sd                    =   1.3126278669288E-04
(PID.TID 0000.0001) %MON surfExpan_theta_mean         =   1.5331053303643E-05
(PID.TID 0000.0001) %MON surfExpan_salt_mean          =   9.9486205899529E-07
(PID.TID 0000.0001) // =======================================================
(PID.TID 0000.0001) // End MONITOR dynamic field statistics
(PID.TID 0000.0001) // =======================================================
time,SST,SSS,fu,fv,Q,E-P,i0,i1,a,b =   3.3264E+06 -2.0896E-01  3.4485E+01 -1.9028E-02 -2.6220E-02  2.4596E+02  0.0000E+00     1     2  7.8333E-01  2.1667E-01
time,fu0,fu1,fu =   3.3264E+06 -3.5633E-02 -1.4435E-02 -1.9028E-02  7.8333E-01  2.1667E-01
 cg2d: Sum(rhs),rhsMax =   2.11497486191092E-14  8.77420667198590E+00
(PID.TID 0000.0001)                    cg2d_init_res =    4.33287791846048E-01
(PID.TID 0000.0001)                       cg2d_iters =    24
(PID.TID 0000.0001)                         cg2d_res =    8.72298252759733E-14
(PID.TID 0000.0001) // =======================================================
(PID.TID 0000.0001) // Begin MONITOR dynamic field statistics
(PID.TID 0000.0001) // =======================================================
(PID.TID 0000.0001) %MON time_tsnumber                =                    78
(PID.TID 0000.0001) %MON time_secondsf                =   3.3696000000000E+06
(PID.TID 0000.0001) %MON dynstat_eta_max              =   9.6652345926286E-01
(PID.TID 0000.0001) %MON dynstat_eta_min              =  -1.3167597853844E+00
(PID.TID 0000.0001) %MON dynstat_eta_mean             =   1.2524739714682E-16
(PID.TID 0000.0001) %MON dynstat_eta_sd               =   4.4307080706716E-01
(PID.TID 0000.0001) %MON dynstat_eta_del2             =   1.9015013256248E-02
(PID.TID 0000.0001) %MON dynstat_uvel_max             =   2.1007661732623E-01
(PID.TID 0000.0001) %MON dynstat_uvel_min             =  -1.6301500084591E-01
(PID.TID 0000.0001) %MON dynstat_uvel_mean            =   7.4880317125195E-04
(PID.TID 0000.0001) %MON dynstat_uvel_sd              =   1.8694753047123E-02
(PID.TID 0000.0001) %MON dynstat_uvel_del2            =   5.0044119122180E-03
(PID.TID 0000.0001) %MON dynstat_vvel_max             =   1.7868895341491E-01
(PID.TID 0000.0001) %MON dynstat_vvel_min             =  -1.5629922555768E-01
(PID.TID 0000.0001) %MON dynstat_vvel_mean            =  -1.3998101420565E-03
(PID.TID 0000.0001) %MON dynstat_vvel_sd              =   1.5499328059922E-02
(PID.TID 0000.0001) %MON dynstat_vvel_del2            =   4.6065298210426E-03
(PID.TID 0000.0001) %MON dynstat_wvel_max             =   3.7946198118305E-04
(PID.TID 0000.0001) %MON dynstat_wvel_min             =  -2.4841895539890E-04
(PID.TID 0000.0001) %MON dynstat_wvel_mean            =   8.9413310845924E-23
(PID.TID 0000.0001) %MON dynstat_wvel_sd              =   2.3623657654585E-05
(PID.TID 0000.0001) %MON dynstat_wvel_del2            =   9.3412279427754E-06
(PID.TID 0000.0001) %MON dynstat_theta_max            =   2.9748481026549E+01
(PID.TID 0000.0001) %MON dynstat_theta_min            =  -1.9305107033674E+00
(PID.TID 0000.0001) %MON dynstat_theta_mean           =   3.5903050854642E+00
(PID.TID 0000.0001) %MON dynstat_theta_sd             =   4.3367135408693E+00
(PID.TID 0000.0001) %MON dynstat_theta_del2           =   1.2873698365191E-01
(PID.TID 0000.0001) %MON dynstat_salt_max             =   3.7394263815283E+01
(PID.TID 0000.0001) %MON dynstat_salt_min             =   2.9764529866144E+01
(PID.TID 0000.0001) %MON dynstat_salt_mean            =   3.4716019047978E+01
(PID.TID 0000.0001) %MON dynstat_salt_sd              =   2.9387391119809E-01
(PID.TID 0000.0001) %MON dynstat_salt_del2            =   2.3429191911720E-02
(PID.TID 0000.0001) %MON advcfl_uvel_max              =   3.0885850601203E-02
(PID.TID 0000.0001) %MON advcfl_vvel_max              =   1.7358198911126E-02
(PID.TID 0000.0001) %MON advcfl_wvel_max              =   1.5144802677934E-01
(PID.TID 0000.0001) %MON advcfl_W_hf_max              =   1.4346775837249E-01
(PID.TID 0000.0001) %MON pe_b_mean                    =   2.5120453343590E-04
(PID.TID 0000.0001) %MON ke_max                       =   1.9614075844794E-02
(PID.TID 0000.0001) %MON ke_mean                      =   2.6776415303267E-04
(PID.TID 0000.0001) %MON ke_vol                       =   1.3226782436723E+18
(PID.TID 0000.0001) %MON vort_r_min                   =  -9.3905046483835E-07
(PID.TID 0000.0001) %MON vort_r_max                   =   6.9230695986553E-07
(PID.TID 0000.0001) %MON vort_a_mean                  =  -2.5205767912653E-05
(PID.TID 0000.0001) %MON vort_a_sd                    =   7.3403497773804E-05
(PID.TID 0000.0001) %MON vort_p_mean                  =  -3.1758667691714E-05
(PID.TID 0000.0001) %MON vort_p_sd                    =   1.3126278373318E-04
(PID.TID 0000.0001) %MON surfExpan_theta_mean         =   1.5175541901374E-05
(PID.TID 0000.0001) %MON surfExpan_salt_mean          =   8.8639044051609E-07
(PID.TID 0000.0001) // =======================================================
(PID.TID 0000.0001) // End MONITOR dynamic field statistics
(PID.TID 0000.0001) // =======================================================
time,SST,SSS,fu,fv,Q,E-P,i0,i1,a,b =   3.3696E+06 -2.3380E-01  3.4480E+01 -1.8674E-02 -2.5560E-02  2.4554E+02  0.0000E+00     1     2  8.0000E-01  2.0000E-01
time,fu0,fu1,fu =   3.3696E+06 -3.5633E-02 -1.4435E-02 -1.8674E-02  8.0000E-01  2.0000E-01
 cg2d: Sum(rhs),rhsMax =   1.63993818524943E-13  9.32820084146999E+00
(PID.TID 0000.0001)                    cg2d_init_res =    3.86634434021691E-01
(PID.TID 0000.0001)                       cg2d_iters =    24
(PID.TID 0000.0001)                         cg2d_res =    7.70211974349326E-14
(PID.TID 0000.0001) // =======================================================
(PID.TID 0000.0001) // Begin MONITOR dynamic field statistics
(PID.TID 0000.0001) // =======================================================
(PID.TID 0000.0001) %MON time_tsnumber                =                    79
(PID.TID 0000.0001) %MON time_secondsf                =   3.4128000000000E+06
(PID.TID 0000.0001) %MON dynstat_eta_max              =   1.0307367678189E+00
(PID.TID 0000.0001) %MON dynstat_eta_min              =  -1.3023419627916E+00
(PID.TID 0000.0001) %MON dynstat_eta_mean             =  -7.7429373941651E-17
(PID.TID 0000.0001) %MON dynstat_eta_sd               =   4.4495188184259E-01
(PID.TID 0000.0001) %MON dynstat_eta_del2             =   1.9047062938384E-02
(PID.TID 0000.0001) %MON dynstat_uvel_max             =   2.1254822486963E-01
(PID.TID 0000.0001) %MON dynstat_uvel_min             =  -1.6165244495451E-01
(PID.TID 0000.0001) %MON dynstat_uvel_mean            =   7.9020789512405E-04
(PID.TID 0000.0001) %MON dynstat_uvel_sd              =   1.8500242097034E-02
(PID.TID 0000.0001) %MON dynstat_uvel_del2            =   4.9898270129854E-03
(PID.TID 0000.0001) %MON dynstat_vvel_max             =   1.7863438843839E-01
(PID.TID 0000.0001) %MON dynstat_vvel_min             =  -1.5592505481438E-01
(PID.TID 0000.0001) %MON dynstat_vvel_mean            =  -1.3030985162643E-03
(PID.TID 0000.0001) %MON dynstat_vvel_sd              =   1.5485758917915E-02
(PID.TID 0000.0001) %MON dynstat_vvel_del2            =   4.5935386189762E-03
(PID.TID 0000.0001) %MON dynstat_wvel_max             =   3.8068756148483E-04
(PID.TID 0000.0001) %MON dynstat_wvel_min             =  -2.4737159474234E-04
(PID.TID 0000.0001) %MON dynstat_wvel_mean            =   4.1630998858860E-22
(PID.TID 0000.0001) %MON dynstat_wvel_sd              =   2.3428769056411E-05
(PID.TID 0000.0001) %MON dynstat_wvel_del2            =   9.2754118799021E-06
(PID.TID 0000.0001) %MON dynstat_theta_max            =   2.9754335885526E+01
(PID.TID 0000.0001) %MON dynstat_theta_min            =  -1.9305282801669E+00
(PID.TID 0000.0001) %MON dynstat_theta_mean           =   3.5901843254495E+00
(PID.TID 0000.0001) %MON dynstat_theta_sd             =   4.3364137155521E+00
(PID.TID 0000.0001) %MON dynstat_theta_del2           =   1.2869877405234E-01
(PID.TID 0000.0001) %MON dynstat_salt_max             =   3.7394356928485E+01
(PID.TID 0000.0001) %MON dynstat_salt_min             =   2.9762549030329E+01
(PID.TID 0000.0001) %MON dynstat_salt_mean            =   3.4716010940534E+01
(PID.TID 0000.0001) %MON dynstat_salt_sd              =   2.9385492961131E-01
(PID.TID 0000.0001) %MON dynstat_salt_del2            =   2.3406083761718E-02
(PID.TID 0000.0001) %MON advcfl_uvel_max              =   3.0835696985656E-02
(PID.TID 0000.0001) %MON advcfl_vvel_max              =   1.7352898361215E-02
(PID.TID 0000.0001) %MON advcfl_wvel_max              =   1.4562636704666E-01
(PID.TID 0000.0001) %MON advcfl_W_hf_max              =   1.3797979895137E-01
(PID.TID 0000.0001) %MON pe_b_mean                    =   2.5334205902242E-04
(PID.TID 0000.0001) %MON ke_max                       =   2.0035380630408E-02
(PID.TID 0000.0001) %MON ke_mean                      =   2.6420009901688E-04
(PID.TID 0000.0001) %MON ke_vol                       =   1.3226782436723E+18
(PID.TID 0000.0001) %MON vort_r_min                   =  -9.1909171669473E-07
(PID.TID 0000.0001) %MON vort_r_max                   =   6.9963787639992E-07
(PID.TID 0000.0001) %MON vort_a_mean                  =  -2.5205767901429E-05
(PID.TID 0000.0001) %MON vort_a_sd                    =   7.3403502988426E-05
(PID.TID 0000.0001) %MON vort_p_mean                  =  -3.1758667677573E-05
(PID.TID 0000.0001) %MON vort_p_sd                    =   1.3126278192682E-04
(PID.TID 0000.0001) %MON surfExpan_theta_mean         =   1.4981086329742E-05
(PID.TID 0000.0001) %MON surfExpan_salt_mean          =   7.6923307780095E-07
(PID.TID 0000.0001) // =======================================================
(PID.TID 0000.0001) // End MONITOR dynamic field statistics
(PID.TID 0000.0001) // =======================================================
time,SST,SSS,fu,fv,Q,E-P,i0,i1,a,b =   3.4128E+06 -2.5864E-01  3.4475E+01 -1.8321E-02 -2.4899E-02  2.4512E+02  0.0000E+00     1     2  8.1667E-01  1.8333E-01
time,fu0,fu1,fu =   3.4128E+06 -3.5633E-02 -1.4435E-02 -1.8321E-02  8.1667E-01  1.8333E-01
 cg2d: Sum(rhs),rhsMax =   1.40720768371239E-14  9.78280925750565E+00
(PID.TID 0000.0001)                    cg2d_init_res =    3.48296815259341E-01
(PID.TID 0000.0001)                       cg2d_iters =    24
(PID.TID 0000.0001)                         cg2d_res =    5.94642970516727E-14
(PID.TID 0000.0001) // =======================================================
(PID.TID 0000.0001) // Begin MONITOR dynamic field statistics
(PID.TID 0000.0001) // =======================================================
(PID.TID 0000.0001) %MON time_tsnumber                =                    80
(PID.TID 0000.0001) %MON time_secondsf                =   3.4560000000000E+06
(PID.TID 0000.0001) %MON dynstat_eta_max              =   1.0839608171254E+00
(PID.TID 0000.0001) %MON dynstat_eta_min              =  -1.2907349393964E+00
(PID.TID 0000.0001) %MON dynstat_eta_mean             =   1.0240599111127E-16
(PID.TID 0000.0001) %MON dynstat_eta_sd               =   4.4678058047823E-01
(PID.TID 0000.0001) %MON dynstat_eta_del2             =   1.9115343570884E-02
(PID.TID 0000.0001) %MON dynstat_uvel_max             =   2.1424142258880E-01
(PID.TID 0000.0001) %MON dynstat_uvel_min             =  -1.6019545568472E-01
(PID.TID 0000.0001) %MON dynstat_uvel_mean            =   8.2807004043760E-04
(PID.TID 0000.0001) %MON dynstat_uvel_sd              =   1.8290736701096E-02
(PID.TID 0000.0001) %MON dynstat_uvel_del2            =   4.9755988702913E-03
(PID.TID 0000.0001) %MON dynstat_vvel_max             =   1.7948458086716E-01
(PID.TID 0000.0001) %MON dynstat_vvel_min             =  -1.5540292558902E-01
(PID.TID 0000.0001) %MON dynstat_vvel_mean            =  -1.2074594712198E-03
(PID.TID 0000.0001) %MON dynstat_vvel_sd              =   1.5464503778307E-02
(PID.TID 0000.0001) %MON dynstat_vvel_del2            =   4.5789288662405E-03
(PID.TID 0000.0001) %MON dynstat_wvel_max             =   3.8182715922024E-04
(PID.TID 0000.0001) %MON dynstat_wvel_min             =  -2.4589154047211E-04
(PID.TID 0000.0001) %MON dynstat_wvel_mean            =  -2.8146851161930E-22
(PID.TID 0000.0001) %MON dynstat_wvel_sd              =   2.3238313176215E-05
(PID.TID 0000.0001) %MON dynstat_wvel_del2            =   9.2118778246660E-06
(PID.TID 0000.0001) %MON dynstat_theta_max            =   2.9760095381688E+01
(PID.TID 0000.0001) %MON dynstat_theta_min            =  -1.9305858055388E+00
(PID.TID 0000.0001) %MON dynstat_theta_mean           =   3.5900666622594E+00
(PID.TID 0000.0001) %MON dynstat_theta_sd             =   4.3361283760161E+00
(PID.TID 0000.0001) %MON dynstat_theta_del2           =   1.2865466232832E-01
(PID.TID 0000.0001) %MON dynstat_salt_max             =   3.7394406144327E+01
(PID.TID 0000.0001) %MON dynstat_salt_min             =   2.9760572584387E+01
(PID.TID 0000.0001) %MON dynstat_salt_mean            =   3.4716004236384E+01
(PID.TID 0000.0001) %MON dynstat_salt_sd              =   2.9383613498609E-01
(PID.TID 0000.0001) %MON dynstat_salt_del2            =   2.3384743420060E-02
(PID.TID 0000.0001) %MON advcfl_uvel_max              =   3.0782512308817E-02
(PID.TID 0000.0001) %MON advcfl_vvel_max              =   1.7435487737946E-02
(PID.TID 0000.0001) %MON advcfl_wvel_max              =   1.3584355197549E-01
(PID.TID 0000.0001) %MON advcfl_W_hf_max              =   1.2882318992875E-01
(PID.TID 0000.0001) %MON pe_b_mean                    =   2.5542874894115E-04
(PID.TID 0000.0001) %MON ke_max                       =   2.0392660741216E-02
(PID.TID 0000.0001) %MON ke_mean                      =   2.6032298267858E-04
(PID.TID 0000.0001) %MON ke_vol                       =   1.3226782436723E+18
(PID.TID 0000.0001) %MON vort_r_min                   =  -8.9894464413985E-07
(PID.TID 0000.0001) %MON vort_r_max                   =   7.0631083618419E-07
(PID.TID 0000.0001) %MON vort_a_mean                  =  -2.5205767895108E-05
(PID.TID 0000.0001) %MON vort_a_sd                    =   7.3403507413041E-05
(PID.TID 0000.0001) %MON vort_p_mean                  =  -3.1758667669608E-05
(PID.TID 0000.0001) %MON vort_p_sd                    =   1.3126278042276E-04
(PID.TID 0000.0001) %MON surfExpan_theta_mean         =   1.4749046615321E-05
(PID.TID 0000.0001) %MON surfExpan_salt_mean          =   6.4735037287723E-07
(PID.TID 0000.0001) // =======================================================
(PID.TID 0000.0001) // End MONITOR dynamic field statistics
(PID.TID 0000.0001) // =======================================================
time,SST,SSS,fu,fv,Q,E-P,i0,i1,a,b =   3.4560E+06 -2.8348E-01  3.4470E+01 -1.7968E-02 -2.4239E-02  2.4470E+02  0.0000E+00     1     2  8.3333E-01  1.6667E-01
time,fu0,fu1,fu =   3.4560E+06 -3.5633E-02 -1.4435E-02 -1.7968E-02  8.3333E-01  1.6667E-01
 cg2d: Sum(rhs),rhsMax =  -1.25316423904565E-14  1.01326126733579E+01
(PID.TID 0000.0001)                    cg2d_init_res =    3.17498478411040E-01
(PID.TID 0000.0001)                       cg2d_iters =    23
(PID.TID 0000.0001)                         cg2d_res =    7.55894932247172E-14
(PID.TID 0000.0001) // =======================================================
(PID.TID 0000.0001) // Begin MONITOR dynamic field statistics
(PID.TID 0000.0001) // =======================================================
(PID.TID 0000.0001) %MON time_tsnumber                =                    81
(PID.TID 0000.0001) %MON time_secondsf                =   3.4992000000000E+06
(PID.TID 0000.0001) %MON dynstat_eta_max              =   1.1252264893949E+00
(PID.TID 0000.0001) %MON dynstat_eta_min              =  -1.2824290795716E+00
(PID.TID 0000.0001) %MON dynstat_eta_mean             =  -4.0707456266767E-17
(PID.TID 0000.0001) %MON dynstat_eta_sd               =   4.4852706562356E-01
(PID.TID 0000.0001) %MON dynstat_eta_del2             =   1.9197129982619E-02
(PID.TID 0000.0001) %MON dynstat_uvel_max             =   2.1514660244696E-01
(PID.TID 0000.0001) %MON dynstat_uvel_min             =  -1.5865080307507E-01
(PID.TID 0000.0001) %MON dynstat_uvel_mean            =   8.6233983923936E-04
(PID.TID 0000.0001) %MON dynstat_uvel_sd              =   1.8069932978526E-02
(PID.TID 0000.0001) %MON dynstat_uvel_del2            =   4.9627432686997E-03
(PID.TID 0000.0001) %MON dynstat_vvel_max             =   1.8015089418596E-01
(PID.TID 0000.0001) %MON dynstat_vvel_min             =  -1.5473881252156E-01
(PID.TID 0000.0001) %MON dynstat_vvel_mean            =  -1.1133731415424E-03
(PID.TID 0000.0001) %MON dynstat_vvel_sd              =   1.5437039262253E-02
(PID.TID 0000.0001) %MON dynstat_vvel_del2            =   4.5644559084844E-03
(PID.TID 0000.0001) %MON dynstat_wvel_max             =   3.8288764625789E-04
(PID.TID 0000.0001) %MON dynstat_wvel_min             =  -2.4402581003607E-04
(PID.TID 0000.0001) %MON dynstat_wvel_mean            =  -3.7231502175601E-22
(PID.TID 0000.0001) %MON dynstat_wvel_sd              =   2.3056461653551E-05
(PID.TID 0000.0001) %MON dynstat_wvel_del2            =   9.1480044294879E-06
(PID.TID 0000.0001) %MON dynstat_theta_max            =   2.9765672983003E+01
(PID.TID 0000.0001) %MON dynstat_theta_min            =  -1.9306897152451E+00
(PID.TID 0000.0001) %MON dynstat_theta_mean           =   3.5899524681056E+00
(PID.TID 0000.0001) %MON dynstat_theta_sd             =   4.3358584179337E+00
(PID.TID 0000.0001) %MON dynstat_theta_del2           =   1.2863643813779E-01
(PID.TID 0000.0001) %MON dynstat_salt_max             =   3.7394410825913E+01
(PID.TID 0000.0001) %MON dynstat_salt_min             =   2.9758602649927E+01
(PID.TID 0000.0001) %MON dynstat_salt_mean            =   3.4715998919875E+01
(PID.TID 0000.0001) %MON dynstat_salt_sd              =   2.9381775560851E-01
(PID.TID 0000.0001) %MON dynstat_salt_del2            =   2.3360739995418E-02
(PID.TID 0000.0001) %MON advcfl_uvel_max              =   3.0726951181933E-02
(PID.TID 0000.0001) %MON advcfl_vvel_max              =   1.7500214733677E-02
(PID.TID 0000.0001) %MON advcfl_wvel_max              =   1.2268534433356E-01
(PID.TID 0000.0001) %MON advcfl_W_hf_max              =   1.1654079718266E-01
(PID.TID 0000.0001) %MON pe_b_mean                    =   2.5742961671619E-04
(PID.TID 0000.0001) %MON ke_max                       =   2.0721456911313E-02
(PID.TID 0000.0001) %MON ke_mean                      =   2.5622275220146E-04
(PID.TID 0000.0001) %MON ke_vol                       =   1.3226782436723E+18
(PID.TID 0000.0001) %MON vort_r_min                   =  -8.7880432793306E-07
(PID.TID 0000.0001) %MON vort_r_max                   =   7.1219747997545E-07
(PID.TID 0000.0001) %MON vort_a_mean                  =  -2.5205767893744E-05
(PID.TID 0000.0001) %MON vort_a_sd                    =   7.3403511029593E-05
(PID.TID 0000.0001) %MON vort_p_mean                  =  -3.1758667667890E-05
(PID.TID 0000.0001) %MON vort_p_sd                    =   1.3126277840503E-04
(PID.TID 0000.0001) %MON surfExpan_theta_mean         =   1.4481839956795E-05
(PID.TID 0000.0001) %MON surfExpan_salt_mean          =   5.2488029326495E-07
(PID.TID 0000.0001) // =======================================================
(PID.TID 0000.0001) // End MONITOR dynamic field statistics
(PID.TID 0000.0001) // =======================================================
time,SST,SSS,fu,fv,Q,E-P,i0,i1,a,b =   3.4992E+06 -3.0831E-01  3.4465E+01 -1.7614E-02 -2.3579E-02  2.4427E+02  0.0000E+00     1     2  8.5000E-01  1.5000E-01
time,fu0,fu1,fu =   3.4992E+06 -3.5633E-02 -1.4435E-02 -1.7614E-02  8.5000E-01  1.5000E-01
 cg2d: Sum(rhs),rhsMax =   2.90711898998097E-13  1.03744120471253E+01
(PID.TID 0000.0001)                    cg2d_init_res =    2.93823239878612E-01
(PID.TID 0000.0001)                       cg2d_iters =    24
(PID.TID 0000.0001)                         cg2d_res =    4.30141736378206E-14
(PID.TID 0000.0001) // =======================================================
(PID.TID 0000.0001) // Begin MONITOR dynamic field statistics
(PID.TID 0000.0001) // =======================================================
(PID.TID 0000.0001) %MON time_tsnumber                =                    82
(PID.TID 0000.0001) %MON time_secondsf                =   3.5424000000000E+06
(PID.TID 0000.0001) %MON dynstat_eta_max              =   1.1542048629637E+00
(PID.TID 0000.0001) %MON dynstat_eta_min              =  -1.2776877324574E+00
(PID.TID 0000.0001) %MON dynstat_eta_mean             =   2.1716707654434E-16
(PID.TID 0000.0001) %MON dynstat_eta_sd               =   4.5016757906925E-01
(PID.TID 0000.0001) %MON dynstat_eta_del2             =   1.9248990404052E-02
(PID.TID 0000.0001) %MON dynstat_uvel_max             =   2.1526327390174E-01
(PID.TID 0000.0001) %MON dynstat_uvel_min             =  -1.5702483408554E-01
(PID.TID 0000.0001) %MON dynstat_uvel_mean            =   8.9294699690056E-04
(PID.TID 0000.0001) %MON dynstat_uvel_sd              =   1.7841340486233E-02
(PID.TID 0000.0001) %MON dynstat_uvel_del2            =   4.9512932529204E-03
(PID.TID 0000.0001) %MON dynstat_vvel_max             =   1.8060888606529E-01
(PID.TID 0000.0001) %MON dynstat_vvel_min             =  -1.5393813411823E-01
(PID.TID 0000.0001) %MON dynstat_vvel_mean            =  -1.0210854097958E-03
(PID.TID 0000.0001) %MON dynstat_vvel_sd              =   1.5404939000105E-02
(PID.TID 0000.0001) %MON dynstat_vvel_del2            =   4.5494330272020E-03
(PID.TID 0000.0001) %MON dynstat_wvel_max             =   3.8387405806901E-04
(PID.TID 0000.0001) %MON dynstat_wvel_min             =  -2.4182278951874E-04
(PID.TID 0000.0001) %MON dynstat_wvel_mean            =  -3.7345154180500E-22
(PID.TID 0000.0001) %MON dynstat_wvel_sd              =   2.2886377909430E-05
(PID.TID 0000.0001) %MON dynstat_wvel_del2            =   9.0831302712987E-06
(PID.TID 0000.0001) %MON dynstat_theta_max            =   2.9770992875900E+01
(PID.TID 0000.0001) %MON dynstat_theta_min            =  -1.9308451688981E+00
(PID.TID 0000.0001) %MON dynstat_theta_mean           =   3.5898421198230E+00
(PID.TID 0000.0001) %MON dynstat_theta_sd             =   4.3356039994923E+00
(PID.TID 0000.0001) %MON dynstat_theta_del2           =   1.2862414611692E-01
(PID.TID 0000.0001) %MON dynstat_salt_max             =   3.7394371288200E+01
(PID.TID 0000.0001) %MON dynstat_salt_min             =   2.9756640579851E+01
(PID.TID 0000.0001) %MON dynstat_salt_mean            =   3.4715994934465E+01
(PID.TID 0000.0001) %MON dynstat_salt_sd              =   2.9379998029612E-01
(PID.TID 0000.0001) %MON dynstat_salt_del2            =   2.3340002755124E-02
(PID.TID 0000.0001) %MON advcfl_uvel_max              =   3.0669463553687E-02
(PID.TID 0000.0001) %MON advcfl_vvel_max              =   1.7544704972101E-02
(PID.TID 0000.0001) %MON advcfl_wvel_max              =   1.0682557844895E-01
(PID.TID 0000.0001) %MON advcfl_W_hf_max              =   1.0175687300954E-01
(PID.TID 0000.0001) %MON pe_b_mean                    =   2.5931618768959E-04
(PID.TID 0000.0001) %MON ke_max                       =   2.0940623378962E-02
(PID.TID 0000.0001) %MON ke_mean                      =   2.5198476020308E-04
(PID.TID 0000.0001) %MON ke_vol                       =   1.3226782436723E+18
(PID.TID 0000.0001) %MON vort_r_min                   =  -8.5885135050795E-07
(PID.TID 0000.0001) %MON vort_r_max                   =   7.1718998421701E-07
(PID.TID 0000.0001) %MON vort_a_mean                  =  -2.5205767897221E-05
(PID.TID 0000.0001) %MON vort_a_sd                    =   7.3403513815524E-05
(PID.TID 0000.0001) %MON vort_p_mean                  =  -3.1758667672270E-05
(PID.TID 0000.0001) %MON vort_p_sd                    =   1.3126277501767E-04
(PID.TID 0000.0001) %MON surfExpan_theta_mean         =   1.4181051825669E-05
(PID.TID 0000.0001) %MON surfExpan_salt_mean          =   4.0545448732885E-07
(PID.TID 0000.0001) // =======================================================
(PID.TID 0000.0001) // End MONITOR dynamic field statistics
(PID.TID 0000.0001) // =======================================================
time,SST,SSS,fu,fv,Q,E-P,i0,i1,a,b =   3.5424E+06 -3.3315E-01  3.4460E+01 -1.7261E-02 -2.2918E-02  2.4385E+02  0.0000E+00     1     2  8.6667E-01  1.3333E-01
time,fu0,fu1,fu =   3.5424E+06 -3.5633E-02 -1.4435E-02 -1.7261E-02  8.6667E-01  1.3333E-01
 cg2d: Sum(rhs),rhsMax =  -3.06601966038045E-13  1.05072064366424E+01
(PID.TID 0000.0001)                    cg2d_init_res =    2.77032865867995E-01
(PID.TID 0000.0001)                       cg2d_iters =    24
(PID.TID 0000.0001)                         cg2d_res =    5.23024366606402E-14
(PID.TID 0000.0001) // =======================================================
(PID.TID 0000.0001) // Begin MONITOR dynamic field statistics
(PID.TID 0000.0001) // =======================================================
(PID.TID 0000.0001) %MON time_tsnumber                =                    83
(PID.TID 0000.0001) %MON time_secondsf                =   3.5856000000000E+06
(PID.TID 0000.0001) %MON dynstat_eta_max              =   1.1708211938046E+00
(PID.TID 0000.0001) %MON dynstat_eta_min              =  -1.2765529458202E+00
(PID.TID 0000.0001) %MON dynstat_eta_mean             =   1.3574706828887E-16
(PID.TID 0000.0001) %MON dynstat_eta_sd               =   4.5168587092166E-01
(PID.TID 0000.0001) %MON dynstat_eta_del2             =   1.9282495318592E-02
(PID.TID 0000.0001) %MON dynstat_uvel_max             =   2.1460011895502E-01
(PID.TID 0000.0001) %MON dynstat_uvel_min             =  -1.5532358400692E-01
(PID.TID 0000.0001) %MON dynstat_uvel_mean            =   9.1982325586916E-04
(PID.TID 0000.0001) %MON dynstat_uvel_sd              =   1.7608236334267E-02
(PID.TID 0000.0001) %MON dynstat_uvel_del2            =   4.9407072131247E-03
(PID.TID 0000.0001) %MON dynstat_vvel_max             =   1.8083996268269E-01
(PID.TID 0000.0001) %MON dynstat_vvel_min             =  -1.5300565899958E-01
(PID.TID 0000.0001) %MON dynstat_vvel_mean            =  -9.3062509925750E-04
(PID.TID 0000.0001) %MON dynstat_vvel_sd              =   1.5369722970207E-02
(PID.TID 0000.0001) %MON dynstat_vvel_del2            =   4.5337276529373E-03
(PID.TID 0000.0001) %MON dynstat_wvel_max             =   3.8478877630727E-04
(PID.TID 0000.0001) %MON dynstat_wvel_min             =  -2.3933113449076E-04
(PID.TID 0000.0001) %MON dynstat_wvel_mean            =  -2.9550730838253E-22
(PID.TID 0000.0001) %MON dynstat_wvel_sd              =   2.2730074840350E-05
(PID.TID 0000.0001) %MON dynstat_wvel_del2            =   9.0223738000896E-06
(PID.TID 0000.0001) %MON dynstat_theta_max            =   2.9775992104019E+01
(PID.TID 0000.0001) %MON dynstat_theta_min            =  -1.9310481150046E+00
(PID.TID 0000.0001) %MON dynstat_theta_mean           =   3.5897359403560E+00
(PID.TID 0000.0001) %MON dynstat_theta_sd             =   4.3353655626761E+00
(PID.TID 0000.0001) %MON dynstat_theta_del2           =   1.2861897751905E-01
(PID.TID 0000.0001) %MON dynstat_salt_max             =   3.7394288645960E+01
(PID.TID 0000.0001) %MON dynstat_salt_min             =   2.9754687076432E+01
(PID.TID 0000.0001) %MON dynstat_salt_mean            =   3.4715992188160E+01
(PID.TID 0000.0001) %MON dynstat_salt_sd              =   2.9378270044379E-01
(PID.TID 0000.0001) %MON dynstat_salt_del2            =   2.3317295211348E-02
(PID.TID 0000.0001) %MON advcfl_uvel_max              =   3.0610326307973E-02
(PID.TID 0000.0001) %MON advcfl_vvel_max              =   1.7567152212470E-02
(PID.TID 0000.0001) %MON advcfl_wvel_max              =   8.8994277203377E-02
(PID.TID 0000.0001) %MON advcfl_W_hf_max              =   8.5147523765698E-02
(PID.TID 0000.0001) %MON pe_b_mean                    =   2.6106834232786E-04
(PID.TID 0000.0001) %MON ke_max                       =   2.1047660801007E-02
(PID.TID 0000.0001) %MON ke_mean                      =   2.4768687711911E-04
(PID.TID 0000.0001) %MON ke_vol                       =   1.3226782436723E+18
(PID.TID 0000.0001) %MON vort_r_min                   =  -8.3924813098091E-07
(PID.TID 0000.0001) %MON vort_r_max                   =   7.2120379028811E-07
(PID.TID 0000.0001) %MON vort_a_mean                  =  -2.5205767904858E-05
(PID.TID 0000.0001) %MON vort_a_sd                    =   7.3403515752841E-05
(PID.TID 0000.0001) %MON vort_p_mean                  =  -3.1758667681893E-05
(PID.TID 0000.0001) %MON vort_p_sd                    =   1.3126276948664E-04
(PID.TID 0000.0001) %MON surfExpan_theta_mean         =   1.3848720284103E-05
(PID.TID 0000.0001) %MON surfExpan_salt_mean          =   2.9237251984266E-07
(PID.TID 0000.0001) // =======================================================
(PID.TID 0000.0001) // End MONITOR dynamic field statistics
(PID.TID 0000.0001) // =======================================================
time,SST,SSS,fu,fv,Q,E-P,i0,i1,a,b =   3.5856E+06 -3.5799E-01  3.4455E+01 -1.6908E-02 -2.2258E-02  2.4343E+02  0.0000E+00     1     2  8.8333E-01  1.1667E-01
time,fu0,fu1,fu =   3.5856E+06 -3.5633E-02 -1.4435E-02 -1.6908E-02  8.8333E-01  1.1667E-01
 cg2d: Sum(rhs),rhsMax =  -4.07035516403198E-14  1.05321341814720E+01
(PID.TID 0000.0001)                    cg2d_init_res =    2.66908393620071E-01
(PID.TID 0000.0001)                       cg2d_iters =    24
(PID.TID 0000.0001)                         cg2d_res =    4.88349777732564E-14
(PID.TID 0000.0001) // =======================================================
(PID.TID 0000.0001) // Begin MONITOR dynamic field statistics
(PID.TID 0000.0001) // =======================================================
(PID.TID 0000.0001) %MON time_tsnumber                =                    84
(PID.TID 0000.0001) %MON time_secondsf                =   3.6288000000000E+06
(PID.TID 0000.0001) %MON dynstat_eta_max              =   1.1752433047733E+00
(PID.TID 0000.0001) %MON dynstat_eta_min              =  -1.2788638102159E+00
(PID.TID 0000.0001) %MON dynstat_eta_mean             =  -5.0977944291741E-17
(PID.TID 0000.0001) %MON dynstat_eta_sd               =   4.5307377478897E-01
(PID.TID 0000.0001) %MON dynstat_eta_del2             =   1.9292311299049E-02
(PID.TID 0000.0001) %MON dynstat_uvel_max             =   2.1317488554993E-01
(PID.TID 0000.0001) %MON dynstat_uvel_min             =  -1.5355290579276E-01
(PID.TID 0000.0001) %MON dynstat_uvel_mean            =   9.4291969281659E-04
(PID.TID 0000.0001) %MON dynstat_uvel_sd              =   1.7373650294605E-02
(PID.TID 0000.0001) %MON dynstat_uvel_del2            =   4.9302529074987E-03
(PID.TID 0000.0001) %MON dynstat_vvel_max             =   1.8083168110204E-01
(PID.TID 0000.0001) %MON dynstat_vvel_min             =  -1.5194546111703E-01
(PID.TID 0000.0001) %MON dynstat_vvel_mean            =  -8.4183176373633E-04
(PID.TID 0000.0001) %MON dynstat_vvel_sd              =   1.5332740076242E-02
(PID.TID 0000.0001) %MON dynstat_vvel_del2            =   4.5192274588162E-03
(PID.TID 0000.0001) %MON dynstat_wvel_max             =   3.8563082914131E-04
(PID.TID 0000.0001) %MON dynstat_wvel_min             =  -2.3659897777213E-04
(PID.TID 0000.0001) %MON dynstat_wvel_mean            =   7.5667071846144E-23
(PID.TID 0000.0001) %MON dynstat_wvel_sd              =   2.2588285838813E-05
(PID.TID 0000.0001) %MON dynstat_wvel_del2            =   8.9669970292831E-06
(PID.TID 0000.0001) %MON dynstat_theta_max            =   2.9780623040265E+01
(PID.TID 0000.0001) %MON dynstat_theta_min            =  -1.9312880734544E+00
(PID.TID 0000.0001) %MON dynstat_theta_mean           =   3.5896342687644E+00
(PID.TID 0000.0001) %MON dynstat_theta_sd             =   4.3351418013418E+00
(PID.TID 0000.0001) %MON dynstat_theta_del2           =   1.2862320994526E-01
(PID.TID 0000.0001) %MON dynstat_salt_max             =   3.7394164667581E+01
(PID.TID 0000.0001) %MON dynstat_salt_min             =   2.9752742329446E+01
(PID.TID 0000.0001) %MON dynstat_salt_mean            =   3.4715990560511E+01
(PID.TID 0000.0001) %MON dynstat_salt_sd              =   2.9376473856844E-01
(PID.TID 0000.0001) %MON dynstat_salt_del2            =   2.3291092879978E-02
(PID.TID 0000.0001) %MON advcfl_uvel_max              =   3.0549684550623E-02
(PID.TID 0000.0001) %MON advcfl_vvel_max              =   1.7566347723319E-02
(PID.TID 0000.0001) %MON advcfl_wvel_max              =   7.1776768336534E-02
(PID.TID 0000.0001) %MON advcfl_W_hf_max              =   6.7411068647381E-02
(PID.TID 0000.0001) %MON pe_b_mean                    =   2.6267518666999E-04
(PID.TID 0000.0001) %MON ke_max                       =   2.1042063864424E-02
(PID.TID 0000.0001) %MON ke_mean                      =   2.4339777760632E-04
(PID.TID 0000.0001) %MON ke_vol                       =   1.3226782436723E+18
(PID.TID 0000.0001) %MON vort_r_min                   =  -8.2013597266799E-07
(PID.TID 0000.0001) %MON vort_r_max                   =   7.2417935107608E-07
(PID.TID 0000.0001) %MON vort_a_mean                  =  -2.5205767917138E-05
(PID.TID 0000.0001) %MON vort_a_sd                    =   7.3403516814853E-05
(PID.TID 0000.0001) %MON vort_p_mean                  =  -3.1758667697365E-05
(PID.TID 0000.0001) %MON vort_p_sd                    =   1.3126276104406E-04
(PID.TID 0000.0001) %MON surfExpan_theta_mean         =   1.3485905643817E-05
(PID.TID 0000.0001) %MON surfExpan_salt_mean          =   1.8835564222512E-07
(PID.TID 0000.0001) // =======================================================
(PID.TID 0000.0001) // End MONITOR dynamic field statistics
(PID.TID 0000.0001) // =======================================================
time,SST,SSS,fu,fv,Q,E-P,i0,i1,a,b =   3.6288E+06 -3.8283E-01  3.4450E+01 -1.6555E-02 -2.1598E-02  2.4301E+02  0.0000E+00     1     2  9.0000E-01  1.0000E-01
time,fu0,fu1,fu =   3.6288E+06 -3.5633E-02 -1.4435E-02 -1.6555E-02  9.0000E-01  1.0000E-01
 cg2d: Sum(rhs),rhsMax =  -9.48269240907962E-14  1.04523926977817E+01
(PID.TID 0000.0001)                    cg2d_init_res =    2.63157748926038E-01
(PID.TID 0000.0001)                       cg2d_iters =    24
(PID.TID 0000.0001)                         cg2d_res =    4.56324194558309E-14
(PID.TID 0000.0001) // =======================================================
(PID.TID 0000.0001) // Begin MONITOR dynamic field statistics
(PID.TID 0000.0001) // =======================================================
(PID.TID 0000.0001) %MON time_tsnumber                =                    85
(PID.TID 0000.0001) %MON time_secondsf                =   3.6720000000000E+06
(PID.TID 0000.0001) %MON dynstat_eta_max              =   1.1678665617181E+00
(PID.TID 0000.0001) %MON dynstat_eta_min              =  -1.2842850723573E+00
(PID.TID 0000.0001) %MON dynstat_eta_mean             =  -4.1402550741187E-18
(PID.TID 0000.0001) %MON dynstat_eta_sd               =   4.5433111097745E-01
(PID.TID 0000.0001) %MON dynstat_eta_del2             =   1.9266505442260E-02
(PID.TID 0000.0001) %MON dynstat_uvel_max             =   2.1101423942298E-01
(PID.TID 0000.0001) %MON dynstat_uvel_min             =  -1.5449634815941E-01
(PID.TID 0000.0001) %MON dynstat_uvel_mean            =   9.6222370724796E-04
(PID.TID 0000.0001) %MON dynstat_uvel_sd              =   1.7140381206784E-02
(PID.TID 0000.0001) %MON dynstat_uvel_del2            =   4.9215718810452E-03
(PID.TID 0000.0001) %MON dynstat_vvel_max             =   1.8057779088991E-01
(PID.TID 0000.0001) %MON dynstat_vvel_min             =  -1.5076095000026E-01
(PID.TID 0000.0001) %MON dynstat_vvel_mean            =  -7.5439288048452E-04
(PID.TID 0000.0001) %MON dynstat_vvel_sd              =   1.5295078538137E-02
(PID.TID 0000.0001) %MON dynstat_vvel_del2            =   4.5056869454785E-03
(PID.TID 0000.0001) %MON dynstat_wvel_max             =   3.8639548371106E-04
(PID.TID 0000.0001) %MON dynstat_wvel_min             =  -2.3367293058014E-04
(PID.TID 0000.0001) %MON dynstat_wvel_mean            =  -2.7193111957091E-22
(PID.TID 0000.0001) %MON dynstat_wvel_sd              =   2.2460546378499E-05
(PID.TID 0000.0001) %MON dynstat_wvel_del2            =   8.9148173180191E-06
(PID.TID 0000.0001) %MON dynstat_theta_max            =   2.9784854893803E+01
(PID.TID 0000.0001) %MON dynstat_theta_min            =  -1.9315920933392E+00
(PID.TID 0000.0001) %MON dynstat_theta_mean           =   3.5895372983200E+00
(PID.TID 0000.0001) %MON dynstat_theta_sd             =   4.3349346855147E+00
(PID.TID 0000.0001) %MON dynstat_theta_del2           =   1.2863659160149E-01
(PID.TID 0000.0001) %MON dynstat_salt_max             =   3.7394001597383E+01
(PID.TID 0000.0001) %MON dynstat_salt_min             =   2.9750806164070E+01
(PID.TID 0000.0001) %MON dynstat_salt_mean            =   3.4715989907637E+01
(PID.TID 0000.0001) %MON dynstat_salt_sd              =   2.9374806600049E-01
(PID.TID 0000.0001) %MON dynstat_salt_del2            =   2.3268889244061E-02
(PID.TID 0000.0001) %MON advcfl_uvel_max              =   3.0487575242434E-02
(PID.TID 0000.0001) %MON advcfl_vvel_max              =   1.7541684325166E-02
(PID.TID 0000.0001) %MON advcfl_wvel_max              =   6.9970689915592E-02
(PID.TID 0000.0001) %MON advcfl_W_hf_max              =   6.0461806275756E-02
(PID.TID 0000.0001) %MON pe_b_mean                    =   2.6413512237158E-04
(PID.TID 0000.0001) %MON ke_max                       =   2.0925317132139E-02
(PID.TID 0000.0001) %MON ke_mean                      =   2.3917625645175E-04
(PID.TID 0000.0001) %MON ke_vol                       =   1.3226782436723E+18
(PID.TID 0000.0001) %MON vort_r_min                   =  -8.0164246637810E-07
(PID.TID 0000.0001) %MON vort_r_max                   =   7.2608275915075E-07
(PID.TID 0000.0001) %MON vort_a_mean                  =  -2.5205767933787E-05
(PID.TID 0000.0001) %MON vort_a_sd                    =   7.3403516990743E-05
(PID.TID 0000.0001) %MON vort_p_mean                  =  -3.1758667718343E-05
(PID.TID 0000.0001) %MON vort_p_sd                    =   1.3126274906622E-04
(PID.TID 0000.0001) %MON surfExpan_theta_mean         =   1.3095946405640E-05
(PID.TID 0000.0001) %MON surfExpan_salt_mean          =   9.5615840637062E-08
(PID.TID 0000.0001) // =======================================================
(PID.TID 0000.0001) // End MONITOR dynamic field statistics
(PID.TID 0000.0001) // =======================================================
time,SST,SSS,fu,fv,Q,E-P,i0,i1,a,b =   3.6720E+06 -4.0767E-01  3.4446E+01 -1.6201E-02 -2.0937E-02  2.4259E+02  0.0000E+00     1     2  9.1667E-01  8.3333E-02
time,fu0,fu1,fu =   3.6720E+06 -3.5633E-02 -1.4435E-02 -1.6201E-02  9.1667E-01  8.3333E-02
 cg2d: Sum(rhs),rhsMax =  -1.89626092605977E-13  1.02769503202641E+01
(PID.TID 0000.0001)                    cg2d_init_res =    2.65257359153497E-01
(PID.TID 0000.0001)                       cg2d_iters =    24
(PID.TID 0000.0001)                         cg2d_res =    4.32173446683591E-14
(PID.TID 0000.0001) // =======================================================
(PID.TID 0000.0001) // Begin MONITOR dynamic field statistics
(PID.TID 0000.0001) // =======================================================
(PID.TID 0000.0001) %MON time_tsnumber                =                    86
(PID.TID 0000.0001) %MON time_secondsf                =   3.7152000000000E+06
(PID.TID 0000.0001) %MON dynstat_eta_max              =   1.1492956481732E+00
(PID.TID 0000.0001) %MON dynstat_eta_min              =  -1.2923413792526E+00
(PID.TID 0000.0001) %MON dynstat_eta_mean             =   1.7424961085489E-17
(PID.TID 0000.0001) %MON dynstat_eta_sd               =   4.5546486377523E-01
(PID.TID 0000.0001) %MON dynstat_eta_del2             =   1.9243647138502E-02
(PID.TID 0000.0001) %MON dynstat_uvel_max             =   2.0815362647595E-01
(PID.TID 0000.0001) %MON dynstat_uvel_min             =  -1.5563922695315E-01
(PID.TID 0000.0001) %MON dynstat_uvel_mean            =   9.7775182355566E-04
(PID.TID 0000.0001) %MON dynstat_uvel_sd              =   1.6911036273543E-02
(PID.TID 0000.0001) %MON dynstat_uvel_del2            =   4.9150894024447E-03
(PID.TID 0000.0001) %MON dynstat_vvel_max             =   1.8007805192868E-01
(PID.TID 0000.0001) %MON dynstat_vvel_min             =  -1.4989383658653E-01
(PID.TID 0000.0001) %MON dynstat_vvel_mean            =  -6.6786313262113E-04
(PID.TID 0000.0001) %MON dynstat_vvel_sd              =   1.5257512668782E-02
(PID.TID 0000.0001) %MON dynstat_vvel_del2            =   4.4921045268341E-03
(PID.TID 0000.0001) %MON dynstat_wvel_max             =   3.8707411190989E-04
(PID.TID 0000.0001) %MON dynstat_wvel_min             =  -2.3059729069127E-04
(PID.TID 0000.0001) %MON dynstat_wvel_mean            =   3.3512890512059E-22
(PID.TID 0000.0001) %MON dynstat_wvel_sd              =   2.2345328602901E-05
(PID.TID 0000.0001) %MON dynstat_wvel_del2            =   8.8664173523743E-06
(PID.TID 0000.0001) %MON dynstat_theta_max            =   2.9788674192460E+01
(PID.TID 0000.0001) %MON dynstat_theta_min            =  -1.9319422877918E+00
(PID.TID 0000.0001) %MON dynstat_theta_mean           =   3.5894453105009E+00
(PID.TID 0000.0001) %MON dynstat_theta_sd             =   4.3347431272971E+00
(PID.TID 0000.0001) %MON dynstat_theta_del2           =   1.2864718965834E-01
(PID.TID 0000.0001) %MON dynstat_salt_max             =   3.7393802008128E+01
(PID.TID 0000.0001) %MON dynstat_salt_min             =   2.9748878188412E+01
(PID.TID 0000.0001) %MON dynstat_salt_mean            =   3.4715990079434E+01
(PID.TID 0000.0001) %MON dynstat_salt_sd              =   2.9373144624207E-01
(PID.TID 0000.0001) %MON dynstat_salt_del2            =   2.3247468267313E-02
(PID.TID 0000.0001) %MON advcfl_uvel_max              =   3.0423945468748E-02
(PID.TID 0000.0001) %MON advcfl_vvel_max              =   1.7493138692507E-02
(PID.TID 0000.0001) %MON advcfl_wvel_max              =   6.6378908591557E-02
(PID.TID 0000.0001) %MON advcfl_W_hf_max              =   6.2538224594127E-02
(PID.TID 0000.0001) %MON pe_b_mean                    =   2.6545503013405E-04
(PID.TID 0000.0001) %MON ke_max                       =   2.0700850734512E-02
(PID.TID 0000.0001) %MON ke_mean                      =   2.3507144040219E-04
(PID.TID 0000.0001) %MON ke_vol                       =   1.3226782436723E+18
(PID.TID 0000.0001) %MON vort_r_min                   =  -7.8387861165388E-07
(PID.TID 0000.0001) %MON vort_r_max                   =   7.2690533563396E-07
(PID.TID 0000.0001) %MON vort_a_mean                  =  -2.5205767954124E-05
(PID.TID 0000.0001) %MON vort_a_sd                    =   7.3403516281478E-05
(PID.TID 0000.0001) %MON vort_p_mean                  =  -3.1758667743967E-05
(PID.TID 0000.0001) %MON vort_p_sd                    =   1.3126273300777E-04
(PID.TID 0000.0001) %MON surfExpan_theta_mean         =   1.2681916322755E-05
(PID.TID 0000.0001) %MON surfExpan_salt_mean          =   1.5668489847521E-08
(PID.TID 0000.0001) // =======================================================
(PID.TID 0000.0001) // End MONITOR dynamic field statistics
(PID.TID 0000.0001) // =======================================================
time,SST,SSS,fu,fv,Q,E-P,i0,i1,a,b =   3.7152E+06 -4.3250E-01  3.4441E+01 -1.5848E-02 -2.0277E-02  2.4217E+02  0.0000E+00     1     2  9.3333E-01  6.6667E-02
time,fu0,fu1,fu =   3.7152E+06 -3.5633E-02 -1.4435E-02 -1.5848E-02  9.3333E-01  6.6667E-02
 cg2d: Sum(rhs),rhsMax =  -1.11410880521134E-13  1.00214496096663E+01
(PID.TID 0000.0001)                    cg2d_init_res =    2.72436495952615E-01
(PID.TID 0000.0001)                       cg2d_iters =    24
(PID.TID 0000.0001)                         cg2d_res =    4.15419428206406E-14
(PID.TID 0000.0001) // =======================================================
(PID.TID 0000.0001) // Begin MONITOR dynamic field statistics
(PID.TID 0000.0001) // =======================================================
(PID.TID 0000.0001) %MON time_tsnumber                =                    87
(PID.TID 0000.0001) %MON time_secondsf                =   3.7584000000000E+06
(PID.TID 0000.0001) %MON dynstat_eta_max              =   1.1203248295051E+00
(PID.TID 0000.0001) %MON dynstat_eta_min              =  -1.3024556075027E+00
(PID.TID 0000.0001) %MON dynstat_eta_mean             =   9.5736831153465E-17
(PID.TID 0000.0001) %MON dynstat_eta_sd               =   4.5648805914219E-01
(PID.TID 0000.0001) %MON dynstat_eta_del2             =   1.9213479586388E-02
(PID.TID 0000.0001) %MON dynstat_uvel_max             =   2.0463684698065E-01
(PID.TID 0000.0001) %MON dynstat_uvel_min             =  -1.5656157273497E-01
(PID.TID 0000.0001) %MON dynstat_uvel_mean            =   9.8957946367630E-04
(PID.TID 0000.0001) %MON dynstat_uvel_sd              =   1.6688072409793E-02
(PID.TID 0000.0001) %MON dynstat_uvel_del2            =   4.9107453844466E-03
(PID.TID 0000.0001) %MON dynstat_vvel_max             =   1.7933785909682E-01
(PID.TID 0000.0001) %MON dynstat_vvel_min             =  -1.5018994179137E-01
(PID.TID 0000.0001) %MON dynstat_vvel_mean            =  -5.8172022057216E-04
(PID.TID 0000.0001) %MON dynstat_vvel_sd              =   1.5220486535296E-02
(PID.TID 0000.0001) %MON dynstat_vvel_del2            =   4.4790179412465E-03
(PID.TID 0000.0001) %MON dynstat_wvel_max             =   3.8765420692724E-04
(PID.TID 0000.0001) %MON dynstat_wvel_min             =  -2.2741349628667E-04
(PID.TID 0000.0001) %MON dynstat_wvel_mean            =  -1.7928284022390E-22
(PID.TID 0000.0001) %MON dynstat_wvel_sd              =   2.2240326863430E-05
(PID.TID 0000.0001) %MON dynstat_wvel_del2            =   8.8246415517465E-06
(PID.TID 0000.0001) %MON dynstat_theta_max            =   2.9792110178231E+01
(PID.TID 0000.0001) %MON dynstat_theta_min            =  -1.9321433278237E+00
(PID.TID 0000.0001) %MON dynstat_theta_mean           =   3.5893584696864E+00
(PID.TID 0000.0001) %MON dynstat_theta_sd             =   4.3345669079380E+00
(PID.TID 0000.0001) %MON dynstat_theta_del2           =   1.2866584765302E-01
(PID.TID 0000.0001) %MON dynstat_salt_max             =   3.7393568722308E+01
(PID.TID 0000.0001) %MON dynstat_salt_min             =   2.9746957931657E+01
(PID.TID 0000.0001) %MON dynstat_salt_mean            =   3.4715990912979E+01
(PID.TID 0000.0001) %MON dynstat_salt_sd              =   2.9371479655743E-01
(PID.TID 0000.0001) %MON dynstat_salt_del2            =   2.3225120120706E-02
(PID.TID 0000.0001) %MON advcfl_uvel_max              =   3.0358707128604E-02
(PID.TID 0000.0001) %MON advcfl_vvel_max              =   1.7421234894525E-02
(PID.TID 0000.0001) %MON advcfl_wvel_max              =   6.1205650468425E-02
(PID.TID 0000.0001) %MON advcfl_W_hf_max              =   6.3953318824773E-02
(PID.TID 0000.0001) %MON pe_b_mean                    =   2.6664905173814E-04
(PID.TID 0000.0001) %MON ke_max                       =   2.0373920020625E-02
(PID.TID 0000.0001) %MON ke_mean                      =   2.3112361049668E-04
(PID.TID 0000.0001) %MON ke_vol                       =   1.3226782436723E+18
(PID.TID 0000.0001) %MON vort_r_min                   =  -7.6692532514566E-07
(PID.TID 0000.0001) %MON vort_r_max                   =   7.2666228628368E-07
(PID.TID 0000.0001) %MON vort_a_mean                  =  -2.5205767977741E-05
(PID.TID 0000.0001) %MON vort_a_sd                    =   7.3403514700198E-05
(PID.TID 0000.0001) %MON vort_p_mean                  =  -3.1758667773724E-05
(PID.TID 0000.0001) %MON vort_p_sd                    =   1.3126271243619E-04
(PID.TID 0000.0001) %MON surfExpan_theta_mean         =   1.2247630782555E-05
(PID.TID 0000.0001) %MON surfExpan_salt_mean          =  -5.0555527456354E-08
(PID.TID 0000.0001) // =======================================================
(PID.TID 0000.0001) // End MONITOR dynamic field statistics
(PID.TID 0000.0001) // =======================================================
time,SST,SSS,fu,fv,Q,E-P,i0,i1,a,b =   3.7584E+06 -4.5734E-01  3.4436E+01 -1.5495E-02 -1.9617E-02  2.4175E+02  0.0000E+00     1     2  9.5000E-01  5.0000E-02
time,fu0,fu1,fu =   3.7584E+06 -3.5633E-02 -1.4435E-02 -1.5495E-02  9.5000E-01  5.0000E-02
 cg2d: Sum(rhs),rhsMax =  -5.97577543004491E-14  9.68125250761400E+00
(PID.TID 0000.0001)                    cg2d_init_res =    2.84453524794718E-01
(PID.TID 0000.0001)                       cg2d_iters =    24
(PID.TID 0000.0001)                         cg2d_res =    4.07690503498095E-14
(PID.TID 0000.0001) // =======================================================
(PID.TID 0000.0001) // Begin MONITOR dynamic field statistics
(PID.TID 0000.0001) // =======================================================
(PID.TID 0000.0001) %MON time_tsnumber                =                    88
(PID.TID 0000.0001) %MON time_secondsf                =   3.8016000000000E+06
(PID.TID 0000.0001) %MON dynstat_eta_max              =   1.0819158117118E+00
(PID.TID 0000.0001) %MON dynstat_eta_min              =  -1.3139890003180E+00
(PID.TID 0000.0001) %MON dynstat_eta_mean             =   1.8419945187240E-16
(PID.TID 0000.0001) %MON dynstat_eta_sd               =   4.5741834350899E-01
(PID.TID 0000.0001) %MON dynstat_eta_del2             =   1.9173138551688E-02
(PID.TID 0000.0001) %MON dynstat_uvel_max             =   2.0051519930971E-01
(PID.TID 0000.0001) %MON dynstat_uvel_min             =  -1.5726899963139E-01
(PID.TID 0000.0001) %MON dynstat_uvel_mean            =   9.9783796217164E-04
(PID.TID 0000.0001) %MON dynstat_uvel_sd              =   1.6473844758730E-02
(PID.TID 0000.0001) %MON dynstat_uvel_del2            =   4.9071654883187E-03
(PID.TID 0000.0001) %MON dynstat_vvel_max             =   1.7836770428548E-01
(PID.TID 0000.0001) %MON dynstat_vvel_min             =  -1.5046513600244E-01
(PID.TID 0000.0001) %MON dynstat_vvel_mean            =  -4.9539927322063E-04
(PID.TID 0000.0001) %MON dynstat_vvel_sd              =   1.5184122819227E-02
(PID.TID 0000.0001) %MON dynstat_vvel_del2            =   4.4666315703332E-03
(PID.TID 0000.0001) %MON dynstat_wvel_max             =   3.8811961097882E-04
(PID.TID 0000.0001) %MON dynstat_wvel_min             =  -2.2415976938517E-04
(PID.TID 0000.0001) %MON dynstat_wvel_mean            =   1.3540251320705E-22
(PID.TID 0000.0001) %MON dynstat_wvel_sd              =   2.2142761140437E-05
(PID.TID 0000.0001) %MON dynstat_wvel_del2            =   8.7821836327499E-06
(PID.TID 0000.0001) %MON dynstat_theta_max            =   2.9795329322729E+01
(PID.TID 0000.0001) %MON dynstat_theta_min            =  -1.9321750325099E+00
(PID.TID 0000.0001) %MON dynstat_theta_mean           =   3.5892769026243E+00
(PID.TID 0000.0001) %MON dynstat_theta_sd             =   4.3344057080024E+00
(PID.TID 0000.0001) %MON dynstat_theta_del2           =   1.2866651765555E-01
(PID.TID 0000.0001) %MON dynstat_salt_max             =   3.7393304699798E+01
(PID.TID 0000.0001) %MON dynstat_salt_min             =   2.9745044965310E+01
(PID.TID 0000.0001) %MON dynstat_salt_mean            =   3.4715992246302E+01
(PID.TID 0000.0001) %MON dynstat_salt_sd              =   2.9369799321738E-01
(PID.TID 0000.0001) %MON dynstat_salt_del2            =   2.3206481332056E-02
(PID.TID 0000.0001) %MON advcfl_uvel_max              =   3.0291731945085E-02
(PID.TID 0000.0001) %MON advcfl_vvel_max              =   1.7326992134310E-02
(PID.TID 0000.0001) %MON advcfl_wvel_max              =   5.8633486362098E-02
(PID.TID 0000.0001) %MON advcfl_W_hf_max              =   6.4638144681243E-02
(PID.TID 0000.0001) %MON pe_b_mean                    =   2.6773697595193E-04
(PID.TID 0000.0001) %MON ke_max                       =   1.9951410512458E-02
(PID.TID 0000.0001) %MON ke_mean                      =   2.2736541658958E-04
(PID.TID 0000.0001) %MON ke_vol                       =   1.3226782436723E+18
(PID.TID 0000.0001) %MON vort_r_min                   =  -7.5083728508354E-07
(PID.TID 0000.0001) %MON vort_r_max                   =   7.2539055136036E-07
(PID.TID 0000.0001) %MON vort_a_mean                  =  -2.5205768004322E-05
(PID.TID 0000.0001) %MON vort_a_sd                    =   7.3403512274340E-05
(PID.TID 0000.0001) %MON vort_p_mean                  =  -3.1758667807215E-05
(PID.TID 0000.0001) %MON vort_p_sd                    =   1.3126268702535E-04
(PID.TID 0000.0001) %MON surfExpan_theta_mean         =   1.1797589227166E-05
(PID.TID 0000.0001) %MON surfExpan_salt_mean          =  -1.0264925230647E-07
(PID.TID 0000.0001) // =======================================================
(PID.TID 0000.0001) // End MONITOR dynamic field statistics
(PID.TID 0000.0001) // =======================================================
time,SST,SSS,fu,fv,Q,E-P,i0,i1,a,b =   3.8016E+06 -4.8218E-01  3.4431E+01 -1.5141E-02 -1.8956E-02  2.4132E+02  0.0000E+00     1     2  9.6667E-01  3.3333E-02
time,fu0,fu1,fu =   3.8016E+06 -3.5633E-02 -1.4435E-02 -1.5141E-02  9.6667E-01  3.3333E-02
 cg2d: Sum(rhs),rhsMax =   6.91113832829160E-14  9.26624533311602E+00
(PID.TID 0000.0001)                    cg2d_init_res =    3.00800841701420E-01
(PID.TID 0000.0001)                       cg2d_iters =    24
(PID.TID 0000.0001)                         cg2d_res =    3.64846910363369E-14
(PID.TID 0000.0001) // =======================================================
(PID.TID 0000.0001) // Begin MONITOR dynamic field statistics
(PID.TID 0000.0001) // =======================================================
(PID.TID 0000.0001) %MON time_tsnumber                =                    89
(PID.TID 0000.0001) %MON time_secondsf                =   3.8448000000000E+06
(PID.TID 0000.0001) %MON dynstat_eta_max              =   1.0351735658409E+00
(PID.TID 0000.0001) %MON dynstat_eta_min              =  -1.3262807745488E+00
(PID.TID 0000.0001) %MON dynstat_eta_mean             =   4.4488390740425E-16
(PID.TID 0000.0001) %MON dynstat_eta_sd               =   4.5827643003436E-01
(PID.TID 0000.0001) %MON dynstat_eta_del2             =   1.9115645084078E-02
(PID.TID 0000.0001) %MON dynstat_uvel_max             =   1.9584670605766E-01
(PID.TID 0000.0001) %MON dynstat_uvel_min             =  -1.5777107792011E-01
(PID.TID 0000.0001) %MON dynstat_uvel_mean            =   1.0027133114410E-03
(PID.TID 0000.0001) %MON dynstat_uvel_sd              =   1.6270648806704E-02
(PID.TID 0000.0001) %MON dynstat_uvel_del2            =   4.9038360078789E-03
(PID.TID 0000.0001) %MON dynstat_vvel_max             =   1.7718250103673E-01
(PID.TID 0000.0001) %MON dynstat_vvel_min             =  -1.5070681934224E-01
(PID.TID 0000.0001) %MON dynstat_vvel_mean            =  -4.0833225536811E-04
(PID.TID 0000.0001) %MON dynstat_vvel_sd              =   1.5148254799594E-02
(PID.TID 0000.0001) %MON dynstat_vvel_del2            =   4.4545754808183E-03
(PID.TID 0000.0001) %MON dynstat_wvel_max             =   3.8845095514293E-04
(PID.TID 0000.0001) %MON dynstat_wvel_min             =  -2.2087084071404E-04
(PID.TID 0000.0001) %MON dynstat_wvel_mean            =   2.9529334989876E-22
(PID.TID 0000.0001) %MON dynstat_wvel_sd              =   2.2049643438609E-05
(PID.TID 0000.0001) %MON dynstat_wvel_del2            =   8.7370901519603E-06
(PID.TID 0000.0001) %MON dynstat_theta_max            =   2.9798290416647E+01
(PID.TID 0000.0001) %MON dynstat_theta_min            =  -1.9322574090103E+00
(PID.TID 0000.0001) %MON dynstat_theta_mean           =   3.5892007190204E+00
(PID.TID 0000.0001) %MON dynstat_theta_sd             =   4.3342594169115E+00
(PID.TID 0000.0001) %MON dynstat_theta_del2           =   1.2867850342965E-01
(PID.TID 0000.0001) %MON dynstat_salt_max             =   3.7393012763696E+01
(PID.TID 0000.0001) %MON dynstat_salt_min             =   2.9743139001954E+01
(PID.TID 0000.0001) %MON dynstat_salt_mean            =   3.4715993922032E+01
(PID.TID 0000.0001) %MON dynstat_salt_sd              =   2.9368092789698E-01
(PID.TID 0000.0001) %MON dynstat_salt_del2            =   2.3182902726954E-02
(PID.TID 0000.0001) %MON advcfl_uvel_max              =   3.0222874314365E-02
(PID.TID 0000.0001) %MON advcfl_vvel_max              =   1.7211859142881E-02
(PID.TID 0000.0001) %MON advcfl_wvel_max              =   6.7435590345527E-02
(PID.TID 0000.0001) %MON advcfl_W_hf_max              =   6.5951878182151E-02
(PID.TID 0000.0001) %MON pe_b_mean                    =   2.6874243183092E-04
(PID.TID 0000.0001) %MON ke_max                       =   1.9441603001173E-02
(PID.TID 0000.0001) %MON ke_mean                      =   2.2382328069860E-04
(PID.TID 0000.0001) %MON ke_vol                       =   1.3226782436723E+18
(PID.TID 0000.0001) %MON vort_r_min                   =  -7.3564814381624E-07
(PID.TID 0000.0001) %MON vort_r_max                   =   7.2314597440888E-07
(PID.TID 0000.0001) %MON vort_a_mean                  =  -2.5205768033527E-05
(PID.TID 0000.0001) %MON vort_a_sd                    =   7.3403509047428E-05
(PID.TID 0000.0001) %MON vort_p_mean                  =  -3.1758667844013E-05
(PID.TID 0000.0001) %MON vort_p_sd                    =   1.3126265655409E-04
(PID.TID 0000.0001) %MON surfExpan_theta_mean         =   1.1336288947592E-05
(PID.TID 0000.0001) %MON surfExpan_salt_mean          =  -1.4077494147534E-07
(PID.TID 0000.0001) // =======================================================
(PID.TID 0000.0001) // End MONITOR dynamic field statistics
(PID.TID 0000.0001) // =======================================================
time,SST,SSS,fu,fv,Q,E-P,i0,i1,a,b =   3.8448E+06 -5.0702E-01  3.4426E+01 -1.4788E-02 -1.8296E-02  2.4090E+02  0.0000E+00     1     2  9.8333E-01  1.6667E-02
time,fu0,fu1,fu =   3.8448E+06 -3.5633E-02 -1.4435E-02 -1.4788E-02  9.8333E-01  1.6667E-02
 cg2d: Sum(rhs),rhsMax =   1.02556851899749E-14  8.78736502657007E+00
(PID.TID 0000.0001)                    cg2d_init_res =    3.21097876847696E-01
(PID.TID 0000.0001)                       cg2d_iters =    24
(PID.TID 0000.0001)                         cg2d_res =    4.36150502173170E-14
(PID.TID 0000.0001) // =======================================================
(PID.TID 0000.0001) // Begin MONITOR dynamic field statistics
(PID.TID 0000.0001) // =======================================================
(PID.TID 0000.0001) %MON time_tsnumber                =                    90
(PID.TID 0000.0001) %MON time_secondsf                =   3.8880000000000E+06
(PID.TID 0000.0001) %MON dynstat_eta_max              =   9.8132101744666E-01
(PID.TID 0000.0001) %MON dynstat_eta_min              =  -1.3386850565376E+00
(PID.TID 0000.0001) %MON dynstat_eta_mean             =  -2.2411661176003E-16
(PID.TID 0000.0001) %MON dynstat_eta_sd               =   4.5908452948911E-01
(PID.TID 0000.0001) %MON dynstat_eta_del2             =   1.9038321001510E-02
(PID.TID 0000.0001) %MON dynstat_uvel_max             =   1.9069519499647E-01
(PID.TID 0000.0001) %MON dynstat_uvel_min             =  -1.5808062551880E-01
(PID.TID 0000.0001) %MON dynstat_uvel_mean            =   1.0044448930280E-03
(PID.TID 0000.0001) %MON dynstat_uvel_sd              =   1.6080743636200E-02
(PID.TID 0000.0001) %MON dynstat_uvel_del2            =   4.8997116482837E-03
(PID.TID 0000.0001) %MON dynstat_vvel_max             =   1.7580083423288E-01
(PID.TID 0000.0001) %MON dynstat_vvel_min             =  -1.5090180080072E-01
(PID.TID 0000.0001) %MON dynstat_vvel_mean            =  -3.1998537543231E-04
(PID.TID 0000.0001) %MON dynstat_vvel_sd              =   1.5112478680899E-02
(PID.TID 0000.0001) %MON dynstat_vvel_del2            =   4.4419922489007E-03
(PID.TID 0000.0001) %MON dynstat_wvel_max             =   3.8862624973500E-04
(PID.TID 0000.0001) %MON dynstat_wvel_min             =  -2.1757764124635E-04
(PID.TID 0000.0001) %MON dynstat_wvel_mean            =   8.3762584859978E-23
(PID.TID 0000.0001) %MON dynstat_wvel_sd              =   2.1957960782448E-05
(PID.TID 0000.0001) %MON dynstat_wvel_del2            =   8.6885059372074E-06
(PID.TID 0000.0001) %MON dynstat_theta_max            =   2.9801026903316E+01
(PID.TID 0000.0001) %MON dynstat_theta_min            =  -1.9323019917067E+00
(PID.TID 0000.0001) %MON dynstat_theta_mean           =   3.5891299511192E+00
(PID.TID 0000.0001) %MON dynstat_theta_sd             =   4.3341274425264E+00
(PID.TID 0000.0001) %MON dynstat_theta_del2           =   1.2869230209022E-01
(PID.TID 0000.0001) %MON dynstat_salt_max             =   3.7392694597370E+01
(PID.TID 0000.0001) %MON dynstat_salt_min             =   2.9741239968095E+01
(PID.TID 0000.0001) %MON dynstat_salt_mean            =   3.4715995793241E+01
(PID.TID 0000.0001) %MON dynstat_salt_sd              =   2.9366342128730E-01
(PID.TID 0000.0001) %MON dynstat_salt_del2            =   2.3159301315270E-02
(PID.TID 0000.0001) %MON advcfl_uvel_max              =   3.0151967373968E-02
(PID.TID 0000.0001) %MON advcfl_vvel_max              =   1.7077641292523E-02
(PID.TID 0000.0001) %MON advcfl_wvel_max              =   7.7547669687745E-02
(PID.TID 0000.0001) %MON advcfl_W_hf_max              =   7.5342297452840E-02
(PID.TID 0000.0001) %MON pe_b_mean                    =   2.6969103870548E-04
(PID.TID 0000.0001) %MON ke_max                       =   1.8853913891653E-02
(PID.TID 0000.0001) %MON ke_mean                      =   2.2051876641029E-04
(PID.TID 0000.0001) %MON ke_vol                       =   1.3226782436723E+18
(PID.TID 0000.0001) %MON vort_r_min                   =  -7.2136501580876E-07
(PID.TID 0000.0001) %MON vort_r_max                   =   7.2000002093237E-07
(PID.TID 0000.0001) %MON vort_a_mean                  =  -2.5205768064977E-05
(PID.TID 0000.0001) %MON vort_a_sd                    =   7.3403505079462E-05
(PID.TID 0000.0001) %MON vort_p_mean                  =  -3.1758667883639E-05
(PID.TID 0000.0001) %MON vort_p_sd                    =   1.3126262092068E-04
(PID.TID 0000.0001) %MON surfExpan_theta_mean         =   1.0866818678216E-05
(PID.TID 0000.0001) %MON surfExpan_salt_mean          =  -1.6573957399021E-07
(PID.TID 0000.0001) // =======================================================
(PID.TID 0000.0001) // End MONITOR dynamic field statistics
(PID.TID 0000.0001) // =======================================================
 S/R EXTERNAL_FIELDS_LOAD: Reading new data  3888000. 90
(PID.TID 0000.0001)  MDSREADFIELD: opening global file: trenberth_taux.bin
(PID.TID 0000.0001)  MDSREADFIELD: opening global file: trenberth_taux.bin
(PID.TID 0000.0001)  MDSREADFIELD: opening global file: trenberth_tauy.bin
(PID.TID 0000.0001)  MDSREADFIELD: opening global file: trenberth_tauy.bin
(PID.TID 0000.0001)  MDSREADFIELD: opening global file: ncep_qnet.bin
(PID.TID 0000.0001)  MDSREADFIELD: opening global file: ncep_qnet.bin
(PID.TID 0000.0001)  MDSREADFIELD: opening global file: lev_sst.bin
(PID.TID 0000.0001)  MDSREADFIELD: opening global file: lev_sst.bin
(PID.TID 0000.0001)  MDSREADFIELD: opening global file: lev_sss.bin
(PID.TID 0000.0001)  MDSREADFIELD: opening global file: lev_sss.bin
time,SST,SSS,fu,fv,Q,E-P,i0,i1,a,b =   3.8880E+06 -5.3186E-01  3.4421E+01 -1.4435E-02 -1.7636E-02  2.4048E+02  0.0000E+00     2     3  0.0000E+00  1.0000E+00
time,fu0,fu1,fu =   3.8880E+06 -1.4435E-02 -2.7199E-02 -1.4435E-02  0.0000E+00  1.0000E+00
 cg2d: Sum(rhs),rhsMax =  -3.80445674963426E-13  8.25636732531269E+00
(PID.TID 0000.0001)                    cg2d_init_res =    3.45114618713449E-01
(PID.TID 0000.0001)                       cg2d_iters =    24
(PID.TID 0000.0001)                         cg2d_res =    5.11145223848855E-14
(PID.TID 0000.0001) // =======================================================
(PID.TID 0000.0001) // Begin MONITOR dynamic field statistics
(PID.TID 0000.0001) // =======================================================
(PID.TID 0000.0001) %MON time_tsnumber                =                    91
(PID.TID 0000.0001) %MON time_secondsf                =   3.9312000000000E+06
(PID.TID 0000.0001) %MON dynstat_eta_max              =   9.2167329227028E-01
(PID.TID 0000.0001) %MON dynstat_eta_min              =  -1.3506032878753E+00
(PID.TID 0000.0001) %MON dynstat_eta_mean             =  -1.6659193266189E-17
(PID.TID 0000.0001) %MON dynstat_eta_sd               =   4.5986485929097E-01
(PID.TID 0000.0001) %MON dynstat_eta_del2             =   1.8943280730789E-02
(PID.TID 0000.0001) %MON dynstat_uvel_max             =   1.8512922764662E-01
(PID.TID 0000.0001) %MON dynstat_uvel_min             =  -1.5821292114982E-01
(PID.TID 0000.0001) %MON dynstat_uvel_mean            =   1.0033229231502E-03
(PID.TID 0000.0001) %MON dynstat_uvel_sd              =   1.5906354857289E-02
(PID.TID 0000.0001) %MON dynstat_uvel_del2            =   4.8941963253502E-03
(PID.TID 0000.0001) %MON dynstat_vvel_max             =   1.7424416229992E-01
(PID.TID 0000.0001) %MON dynstat_vvel_min             =  -1.5103678314762E-01
(PID.TID 0000.0001) %MON dynstat_vvel_mean            =  -2.2989621227510E-04
(PID.TID 0000.0001) %MON dynstat_vvel_sd              =   1.5076224216506E-02
(PID.TID 0000.0001) %MON dynstat_vvel_del2            =   4.4283749994227E-03
(PID.TID 0000.0001) %MON dynstat_wvel_max             =   3.8862168393161E-04
(PID.TID 0000.0001) %MON dynstat_wvel_min             =  -2.1430758348512E-04
(PID.TID 0000.0001) %MON dynstat_wvel_mean            =   7.6151580743045E-23
(PID.TID 0000.0001) %MON dynstat_wvel_sd              =   2.1865057615326E-05
(PID.TID 0000.0001) %MON dynstat_wvel_del2            =   8.6363601281413E-06
(PID.TID 0000.0001) %MON dynstat_theta_max            =   2.9803581051368E+01
(PID.TID 0000.0001) %MON dynstat_theta_min            =  -1.9323457375127E+00
(PID.TID 0000.0001) %MON dynstat_theta_mean           =   3.5890645203649E+00
(PID.TID 0000.0001) %MON dynstat_theta_sd             =   4.3340094205995E+00
(PID.TID 0000.0001) %MON dynstat_theta_del2           =   1.2870694778260E-01
(PID.TID 0000.0001) %MON dynstat_salt_max             =   3.7392353495951E+01
(PID.TID 0000.0001) %MON dynstat_salt_min             =   2.9739348049790E+01
(PID.TID 0000.0001) %MON dynstat_salt_mean            =   3.4715997731530E+01
(PID.TID 0000.0001) %MON dynstat_salt_sd              =   2.9364526332146E-01
(PID.TID 0000.0001) %MON dynstat_salt_del2            =   2.3134300607131E-02
(PID.TID 0000.0001) %MON advcfl_uvel_max              =   3.0078800686786E-02
(PID.TID 0000.0001) %MON advcfl_vvel_max              =   1.6926423097244E-02
(PID.TID 0000.0001) %MON advcfl_wvel_max              =   8.5892724253988E-02
(PID.TID 0000.0001) %MON advcfl_W_hf_max              =   8.2899049967958E-02
(PID.TID 0000.0001) %MON pe_b_mean                    =   2.7060863359671E-04
(PID.TID 0000.0001) %MON ke_max                       =   1.8198609324197E-02
(PID.TID 0000.0001) %MON ke_mean                      =   2.1746988852469E-04
(PID.TID 0000.0001) %MON ke_vol                       =   1.3226782436723E+18
(PID.TID 0000.0001) %MON vort_r_min                   =  -7.0797476165027E-07
(PID.TID 0000.0001) %MON vort_r_max                   =   7.1603621728551E-07
(PID.TID 0000.0001) %MON vort_a_mean                  =  -2.5205768098283E-05
(PID.TID 0000.0001) %MON vort_a_sd                    =   7.3403500446254E-05
(PID.TID 0000.0001) %MON vort_p_mean                  =  -3.1758667925604E-05
(PID.TID 0000.0001) %MON vort_p_sd                    =   1.3126258012917E-04
(PID.TID 0000.0001) %MON surfExpan_theta_mean         =   1.0397073320240E-05
(PID.TID 0000.0001) %MON surfExpan_salt_mean          =  -1.7827733247051E-07
(PID.TID 0000.0001) // =======================================================
(PID.TID 0000.0001) // End MONITOR dynamic field statistics
(PID.TID 0000.0001) // =======================================================
time,SST,SSS,fu,fv,Q,E-P,i0,i1,a,b =   3.9312E+06 -5.2606E-01  3.4424E+01 -1.4647E-02 -1.7351E-02  2.4006E+02  0.0000E+00     2     3  1.6667E-02  9.8333E-01
time,fu0,fu1,fu =   3.9312E+06 -1.4435E-02 -2.7199E-02 -1.4647E-02  1.6667E-02  9.8333E-01
 cg2d: Sum(rhs),rhsMax =  -2.52409204648529E-13  7.68566183644645E+00
(PID.TID 0000.0001)                    cg2d_init_res =    3.72769252557721E-01
(PID.TID 0000.0001)                       cg2d_iters =    24
(PID.TID 0000.0001)                         cg2d_res =    5.81322852319971E-14
(PID.TID 0000.0001) // =======================================================
(PID.TID 0000.0001) // Begin MONITOR dynamic field statistics
(PID.TID 0000.0001) // =======================================================
(PID.TID 0000.0001) %MON time_tsnumber                =                    92
(PID.TID 0000.0001) %MON time_secondsf                =   3.9744000000000E+06
(PID.TID 0000.0001) %MON dynstat_eta_max              =   8.5761808113365E-01
(PID.TID 0000.0001) %MON dynstat_eta_min              =  -1.3615241051240E+00
(PID.TID 0000.0001) %MON dynstat_eta_mean             =  -5.4775383376918E-18
(PID.TID 0000.0001) %MON dynstat_eta_sd               =   4.6063834632328E-01
(PID.TID 0000.0001) %MON dynstat_eta_del2             =   1.8829242693277E-02
(PID.TID 0000.0001) %MON dynstat_uvel_max             =   1.7928007133166E-01
(PID.TID 0000.0001) %MON dynstat_uvel_min             =  -1.5818462691614E-01
(PID.TID 0000.0001) %MON dynstat_uvel_mean            =   9.9968550584466E-04
(PID.TID 0000.0001) %MON dynstat_uvel_sd              =   1.5749721046462E-02
(PID.TID 0000.0001) %MON dynstat_uvel_del2            =   4.8867505218760E-03
(PID.TID 0000.0001) %MON dynstat_vvel_max             =   1.7254668285920E-01
(PID.TID 0000.0001) %MON dynstat_vvel_min             =  -1.5109884684100E-01
(PID.TID 0000.0001) %MON dynstat_vvel_mean            =  -1.3768525043776E-04
(PID.TID 0000.0001) %MON dynstat_vvel_sd              =   1.5038664701633E-02
(PID.TID 0000.0001) %MON dynstat_vvel_del2            =   4.4124149950466E-03
(PID.TID 0000.0001) %MON dynstat_wvel_max             =   3.8841260622615E-04
(PID.TID 0000.0001) %MON dynstat_wvel_min             =  -2.1108466380017E-04
(PID.TID 0000.0001) %MON dynstat_wvel_mean            =  -2.5336567403805E-22
(PID.TID 0000.0001) %MON dynstat_wvel_sd              =   2.1768600908101E-05
(PID.TID 0000.0001) %MON dynstat_wvel_del2            =   8.5813232966451E-06
(PID.TID 0000.0001) %MON dynstat_theta_max            =   2.9805945197723E+01
(PID.TID 0000.0001) %MON dynstat_theta_min            =  -1.9322044622864E+00
(PID.TID 0000.0001) %MON dynstat_theta_mean           =   3.5890038480445E+00
(PID.TID 0000.0001) %MON dynstat_theta_sd             =   4.3339033201037E+00
(PID.TID 0000.0001) %MON dynstat_theta_del2           =   1.2870422114410E-01
(PID.TID 0000.0001) %MON dynstat_salt_max             =   3.7391992544722E+01
(PID.TID 0000.0001) %MON dynstat_salt_min             =   2.9737464243633E+01
(PID.TID 0000.0001) %MON dynstat_salt_mean            =   3.4715999621518E+01
(PID.TID 0000.0001) %MON dynstat_salt_sd              =   2.9362624684550E-01
(PID.TID 0000.0001) %MON dynstat_salt_del2            =   2.3108448841776E-02
(PID.TID 0000.0001) %MON advcfl_uvel_max              =   3.0003118271175E-02
(PID.TID 0000.0001) %MON advcfl_vvel_max              =   1.6761526581727E-02
(PID.TID 0000.0001) %MON advcfl_wvel_max              =   9.2239504036741E-02
(PID.TID 0000.0001) %MON advcfl_W_hf_max              =   8.8533337408324E-02
(PID.TID 0000.0001) %MON pe_b_mean                    =   2.7151971995182E-04
(PID.TID 0000.0001) %MON ke_max                       =   1.7497690266704E-02
(PID.TID 0000.0001) %MON ke_mean                      =   2.1469087934917E-04
(PID.TID 0000.0001) %MON ke_vol                       =   1.3226782436723E+18
(PID.TID 0000.0001) %MON vort_r_min                   =  -6.9559892196926E-07
(PID.TID 0000.0001) %MON vort_r_max                   =   7.1140517800805E-07
(PID.TID 0000.0001) %MON vort_a_mean                  =  -2.5205768132532E-05
(PID.TID 0000.0001) %MON vort_a_sd                    =   7.3403495242742E-05
(PID.TID 0000.0001) %MON vort_p_mean                  =  -3.1758667968757E-05
(PID.TID 0000.0001) %MON vort_p_sd                    =   1.3126253425094E-04
(PID.TID 0000.0001) %MON surfExpan_theta_mean         =   9.9295219889980E-06
(PID.TID 0000.0001) %MON surfExpan_salt_mean          =  -1.8027165064512E-07
(PID.TID 0000.0001) // =======================================================
(PID.TID 0000.0001) // End MONITOR dynamic field statistics
(PID.TID 0000.0001) // =======================================================
time,SST,SSS,fu,fv,Q,E-P,i0,i1,a,b =   3.9744E+06 -5.2026E-01  3.4426E+01 -1.4860E-02 -1.7067E-02  2.3964E+02  0.0000E+00     2     3  3.3333E-02  9.6667E-01
time,fu0,fu1,fu =   3.9744E+06 -1.4435E-02 -2.7199E-02 -1.4860E-02  3.3333E-02  9.6667E-01
 cg2d: Sum(rhs),rhsMax =   6.89018286870180E-13  7.08797865245273E+00
(PID.TID 0000.0001)                    cg2d_init_res =    4.04130325519250E-01
(PID.TID 0000.0001)                       cg2d_iters =    24
(PID.TID 0000.0001)                         cg2d_res =    6.51791264973431E-14
(PID.TID 0000.0001) // =======================================================
(PID.TID 0000.0001) // Begin MONITOR dynamic field statistics
(PID.TID 0000.0001) // =======================================================
(PID.TID 0000.0001) %MON time_tsnumber                =                    93
(PID.TID 0000.0001) %MON time_secondsf                =   4.0176000000000E+06
(PID.TID 0000.0001) %MON dynstat_eta_max              =   7.9057998651115E-01
(PID.TID 0000.0001) %MON dynstat_eta_min              =  -1.3710175332555E+00
(PID.TID 0000.0001) %MON dynstat_eta_mean             =   6.6290868550112E-17
(PID.TID 0000.0001) %MON dynstat_eta_sd               =   4.6142340864400E-01
(PID.TID 0000.0001) %MON dynstat_eta_del2             =   1.8722832039401E-02
(PID.TID 0000.0001) %MON dynstat_uvel_max             =   1.7319419453918E-01
(PID.TID 0000.0001) %MON dynstat_uvel_min             =  -1.5801339611294E-01
(PID.TID 0000.0001) %MON dynstat_uvel_mean            =   9.9388905755914E-04
(PID.TID 0000.0001) %MON dynstat_uvel_sd              =   1.5612815935447E-02
(PID.TID 0000.0001) %MON dynstat_uvel_del2            =   4.8782882426723E-03
(PID.TID 0000.0001) %MON dynstat_vvel_max             =   1.7072796703841E-01
(PID.TID 0000.0001) %MON dynstat_vvel_min             =  -1.5107600659955E-01
(PID.TID 0000.0001) %MON dynstat_vvel_mean            =  -4.3116956502359E-05
(PID.TID 0000.0001) %MON dynstat_vvel_sd              =   1.4999199326811E-02
(PID.TID 0000.0001) %MON dynstat_vvel_del2            =   4.3946287404281E-03
(PID.TID 0000.0001) %MON dynstat_wvel_max             =   3.8797432652817E-04
(PID.TID 0000.0001) %MON dynstat_wvel_min             =  -2.0792967144067E-04
(PID.TID 0000.0001) %MON dynstat_wvel_mean            =   3.0048372467465E-22
(PID.TID 0000.0001) %MON dynstat_wvel_sd              =   2.1666860573762E-05
(PID.TID 0000.0001) %MON dynstat_wvel_del2            =   8.5212605058521E-06
(PID.TID 0000.0001) %MON dynstat_theta_max            =   2.9808199434871E+01
(PID.TID 0000.0001) %MON dynstat_theta_min            =  -1.9320859299285E+00
(PID.TID 0000.0001) %MON dynstat_theta_mean           =   3.5889480027240E+00
(PID.TID 0000.0001) %MON dynstat_theta_sd             =   4.3338089405800E+00
(PID.TID 0000.0001) %MON dynstat_theta_del2           =   1.2869601342221E-01
(PID.TID 0000.0001) %MON dynstat_salt_max             =   3.7391615254595E+01
(PID.TID 0000.0001) %MON dynstat_salt_min             =   2.9735589871200E+01
(PID.TID 0000.0001) %MON dynstat_salt_mean            =   3.4716001374795E+01
(PID.TID 0000.0001) %MON dynstat_salt_sd              =   2.9360592948894E-01
(PID.TID 0000.0001) %MON dynstat_salt_del2            =   2.3084546556866E-02
(PID.TID 0000.0001) %MON advcfl_uvel_max              =   2.9924613292472E-02
(PID.TID 0000.0001) %MON advcfl_vvel_max              =   1.6584852924084E-02
(PID.TID 0000.0001) %MON advcfl_wvel_max              =   9.6534856256399E-02
(PID.TID 0000.0001) %MON advcfl_W_hf_max              =   9.2193989377889E-02
(PID.TID 0000.0001) %MON pe_b_mean                    =   2.7244600646941E-04
(PID.TID 0000.0001) %MON ke_max                       =   1.7082726962544E-02
(PID.TID 0000.0001) %MON ke_mean                      =   2.1219506128884E-04
(PID.TID 0000.0001) %MON ke_vol                       =   1.3226782436723E+18
(PID.TID 0000.0001) %MON vort_r_min                   =  -6.8434488405140E-07
(PID.TID 0000.0001) %MON vort_r_max                   =   7.0617940218795E-07
(PID.TID 0000.0001) %MON vort_a_mean                  =  -2.5205768167625E-05
(PID.TID 0000.0001) %MON vort_a_sd                    =   7.3403489566842E-05
(PID.TID 0000.0001) %MON vort_p_mean                  =  -3.1758668012973E-05
(PID.TID 0000.0001) %MON vort_p_sd                    =   1.3126248348528E-04
(PID.TID 0000.0001) %MON surfExpan_theta_mean         =   9.4682437508997E-06
(PID.TID 0000.0001) %MON surfExpan_salt_mean          =  -1.7325239779268E-07
(PID.TID 0000.0001) // =======================================================
(PID.TID 0000.0001) // End MONITOR dynamic field statistics
(PID.TID 0000.0001) // =======================================================
time,SST,SSS,fu,fv,Q,E-P,i0,i1,a,b =   4.0176E+06 -5.1446E-01  3.4429E+01 -1.5073E-02 -1.6783E-02  2.3923E+02  0.0000E+00     2     3  5.0000E-02  9.5000E-01
time,fu0,fu1,fu =   4.0176E+06 -1.4435E-02 -2.7199E-02 -1.5073E-02  5.0000E-02  9.5000E-01
 cg2d: Sum(rhs),rhsMax =   1.60274571392449E-13  6.77027604985533E+00
(PID.TID 0000.0001)                    cg2d_init_res =    4.20314734404207E-01
(PID.TID 0000.0001)                       cg2d_iters =    24
(PID.TID 0000.0001)                         cg2d_res =    6.93433290466895E-14
(PID.TID 0000.0001) // =======================================================
(PID.TID 0000.0001) // Begin MONITOR dynamic field statistics
(PID.TID 0000.0001) // =======================================================
(PID.TID 0000.0001) %MON time_tsnumber                =                    94
(PID.TID 0000.0001) %MON time_secondsf                =   4.0608000000000E+06
(PID.TID 0000.0001) %MON dynstat_eta_max              =   7.6205424198675E-01
(PID.TID 0000.0001) %MON dynstat_eta_min              =  -1.3787583485103E+00
(PID.TID 0000.0001) %MON dynstat_eta_mean             =   1.3413560063773E-16
(PID.TID 0000.0001) %MON dynstat_eta_sd               =   4.6223508698527E-01
(PID.TID 0000.0001) %MON dynstat_eta_del2             =   1.8618844303703E-02
(PID.TID 0000.0001) %MON dynstat_uvel_max             =   1.6694452730740E-01
(PID.TID 0000.0001) %MON dynstat_uvel_min             =  -1.5771692308759E-01
(PID.TID 0000.0001) %MON dynstat_uvel_mean            =   9.8631891660291E-04
(PID.TID 0000.0001) %MON dynstat_uvel_sd              =   1.5497466816576E-02
(PID.TID 0000.0001) %MON dynstat_uvel_del2            =   4.8685149550237E-03
(PID.TID 0000.0001) %MON dynstat_vvel_max             =   1.6881301283269E-01
(PID.TID 0000.0001) %MON dynstat_vvel_min             =  -1.5095767790192E-01
(PID.TID 0000.0001) %MON dynstat_vvel_mean            =   5.3904432764338E-05
(PID.TID 0000.0001) %MON dynstat_vvel_sd              =   1.4957252371664E-02
(PID.TID 0000.0001) %MON dynstat_vvel_del2            =   4.3761770884873E-03
(PID.TID 0000.0001) %MON dynstat_wvel_max             =   3.8728263465460E-04
(PID.TID 0000.0001) %MON dynstat_wvel_min             =  -2.0486069225181E-04
(PID.TID 0000.0001) %MON dynstat_wvel_mean            =   2.1442648435478E-22
(PID.TID 0000.0001) %MON dynstat_wvel_sd              =   2.1558817223391E-05
(PID.TID 0000.0001) %MON dynstat_wvel_del2            =   8.4566669842394E-06
(PID.TID 0000.0001) %MON dynstat_theta_max            =   2.9810405193822E+01
(PID.TID 0000.0001) %MON dynstat_theta_min            =  -1.9319237836421E+00
(PID.TID 0000.0001) %MON dynstat_theta_mean           =   3.5888968425084E+00
(PID.TID 0000.0001) %MON dynstat_theta_sd             =   4.3337269687929E+00
(PID.TID 0000.0001) %MON dynstat_theta_del2           =   1.2874889808334E-01
(PID.TID 0000.0001) %MON dynstat_salt_max             =   3.7391224650434E+01
(PID.TID 0000.0001) %MON dynstat_salt_min             =   2.9733726466374E+01
(PID.TID 0000.0001) %MON dynstat_salt_mean            =   3.4716002923690E+01
(PID.TID 0000.0001) %MON dynstat_salt_sd              =   2.9358443395698E-01
(PID.TID 0000.0001) %MON dynstat_salt_del2            =   2.3073354664881E-02
(PID.TID 0000.0001) %MON advcfl_uvel_max              =   2.9842913758246E-02
(PID.TID 0000.0001) %MON advcfl_vvel_max              =   1.6398830479085E-02
(PID.TID 0000.0001) %MON advcfl_wvel_max              =   9.8758944259525E-02
(PID.TID 0000.0001) %MON advcfl_W_hf_max              =   9.3865777192164E-02
(PID.TID 0000.0001) %MON pe_b_mean                    =   2.7340535538012E-04
(PID.TID 0000.0001) %MON ke_max                       =   1.6804338268380E-02
(PID.TID 0000.0001) %MON ke_mean                      =   2.0999425634522E-04
(PID.TID 0000.0001) %MON ke_vol                       =   1.3226782436723E+18
(PID.TID 0000.0001) %MON vort_r_min                   =  -6.7418030376476E-07
(PID.TID 0000.0001) %MON vort_r_max                   =   7.0045621263538E-07
(PID.TID 0000.0001) %MON vort_a_mean                  =  -2.5205768203312E-05
(PID.TID 0000.0001) %MON vort_a_sd                    =   7.3403483527064E-05
(PID.TID 0000.0001) %MON vort_p_mean                  =  -3.1758668057938E-05
(PID.TID 0000.0001) %MON vort_p_sd                    =   1.3126242810470E-04
(PID.TID 0000.0001) %MON surfExpan_theta_mean         =   9.0178134376758E-06
(PID.TID 0000.0001) %MON surfExpan_salt_mean          =  -1.5905262986471E-07
(PID.TID 0000.0001) // =======================================================
(PID.TID 0000.0001) // End MONITOR dynamic field statistics
(PID.TID 0000.0001) // =======================================================
time,SST,SSS,fu,fv,Q,E-P,i0,i1,a,b =   4.0608E+06 -5.0866E-01  3.4432E+01 -1.5286E-02 -1.6498E-02  2.3881E+02  0.0000E+00     2     3  6.6667E-02  9.3333E-01
time,fu0,fu1,fu =   4.0608E+06 -1.4435E-02 -2.7199E-02 -1.5286E-02  6.6667E-02  9.3333E-01
 cg2d: Sum(rhs),rhsMax =   6.00908212078366E-15  6.73808700228629E+00
(PID.TID 0000.0001)                    cg2d_init_res =    4.16725820172720E-01
(PID.TID 0000.0001)                       cg2d_iters =    24
(PID.TID 0000.0001)                         cg2d_res =    7.13640941918273E-14
(PID.TID 0000.0001) // =======================================================
(PID.TID 0000.0001) // Begin MONITOR dynamic field statistics
(PID.TID 0000.0001) // =======================================================
(PID.TID 0000.0001) %MON time_tsnumber                =                    95
(PID.TID 0000.0001) %MON time_secondsf                =   4.1040000000000E+06
(PID.TID 0000.0001) %MON dynstat_eta_max              =   7.5854580555090E-01
(PID.TID 0000.0001) %MON dynstat_eta_min              =  -1.3845313739517E+00
(PID.TID 0000.0001) %MON dynstat_eta_mean             =   6.1120945990628E-17
(PID.TID 0000.0001) %MON dynstat_eta_sd               =   4.6308446796922E-01
(PID.TID 0000.0001) %MON dynstat_eta_del2             =   1.8593132812253E-02
(PID.TID 0000.0001) %MON dynstat_uvel_max             =   1.6420561360403E-01
(PID.TID 0000.0001) %MON dynstat_uvel_min             =  -1.5731220661408E-01
(PID.TID 0000.0001) %MON dynstat_uvel_mean            =   9.7737555493615E-04
(PID.TID 0000.0001) %MON dynstat_uvel_sd              =   1.5405217197181E-02
(PID.TID 0000.0001) %MON dynstat_uvel_del2            =   4.8572444240256E-03
(PID.TID 0000.0001) %MON dynstat_vvel_max             =   1.6685093534837E-01
(PID.TID 0000.0001) %MON dynstat_vvel_min             =  -1.5073508160984E-01
(PID.TID 0000.0001) %MON dynstat_vvel_mean            =   1.5331979544156E-04
(PID.TID 0000.0001) %MON dynstat_vvel_sd              =   1.4912417754975E-02
(PID.TID 0000.0001) %MON dynstat_vvel_del2            =   4.3577855600791E-03
(PID.TID 0000.0001) %MON dynstat_wvel_max             =   3.8631504028377E-04
(PID.TID 0000.0001) %MON dynstat_wvel_min             =  -2.0189367888386E-04
(PID.TID 0000.0001) %MON dynstat_wvel_mean            =   1.8412316933343E-22
(PID.TID 0000.0001) %MON dynstat_wvel_sd              =   2.1444130664022E-05
(PID.TID 0000.0001) %MON dynstat_wvel_del2            =   8.3929982745129E-06
(PID.TID 0000.0001) %MON dynstat_theta_max            =   2.9812625388663E+01
(PID.TID 0000.0001) %MON dynstat_theta_min            =  -1.9317129276745E+00
(PID.TID 0000.0001) %MON dynstat_theta_mean           =   3.5888502256068E+00
(PID.TID 0000.0001) %MON dynstat_theta_sd             =   4.3336577577136E+00
(PID.TID 0000.0001) %MON dynstat_theta_del2           =   1.2875321717079E-01
(PID.TID 0000.0001) %MON dynstat_salt_max             =   3.7390823421704E+01
(PID.TID 0000.0001) %MON dynstat_salt_min             =   2.9731875812593E+01
(PID.TID 0000.0001) %MON dynstat_salt_mean            =   3.4716004226587E+01
(PID.TID 0000.0001) %MON dynstat_salt_sd              =   2.9356245023142E-01
(PID.TID 0000.0001) %MON dynstat_salt_del2            =   2.3047704589155E-02
(PID.TID 0000.0001) %MON advcfl_uvel_max              =   2.9757551225889E-02
(PID.TID 0000.0001) %MON advcfl_vvel_max              =   1.6208230385453E-02
(PID.TID 0000.0001) %MON advcfl_wvel_max              =   9.9039941725472E-02
(PID.TID 0000.0001) %MON advcfl_W_hf_max              =   9.3570731993584E-02
(PID.TID 0000.0001) %MON pe_b_mean                    =   2.7441107164593E-04
(PID.TID 0000.0001) %MON ke_max                       =   1.6507193210116E-02
(PID.TID 0000.0001) %MON ke_mean                      =   2.0809915923580E-04
(PID.TID 0000.0001) %MON ke_vol                       =   1.3226782436723E+18
(PID.TID 0000.0001) %MON vort_r_min                   =  -6.6509604020092E-07
(PID.TID 0000.0001) %MON vort_r_max                   =   6.9433068630287E-07
(PID.TID 0000.0001) %MON vort_a_mean                  =  -2.5205768239386E-05
(PID.TID 0000.0001) %MON vort_a_sd                    =   7.3403477238014E-05
(PID.TID 0000.0001) %MON vort_p_mean                  =  -3.1758668103390E-05
(PID.TID 0000.0001) %MON vort_p_sd                    =   1.3126236847056E-04
(PID.TID 0000.0001) %MON surfExpan_theta_mean         =   8.5794939782763E-06
(PID.TID 0000.0001) %MON surfExpan_salt_mean          =  -1.3999222246198E-07
(PID.TID 0000.0001) // =======================================================
(PID.TID 0000.0001) // End MONITOR dynamic field statistics
(PID.TID 0000.0001) // =======================================================
time,SST,SSS,fu,fv,Q,E-P,i0,i1,a,b =   4.1040E+06 -5.0286E-01  3.4434E+01 -1.5498E-02 -1.6214E-02  2.3839E+02  0.0000E+00     2     3  8.3333E-02  9.1667E-01
time,fu0,fu1,fu =   4.1040E+06 -1.4435E-02 -2.7199E-02 -1.5498E-02  8.3333E-02  9.1667E-01
 cg2d: Sum(rhs),rhsMax =  -1.09824649374701E-12  6.70168353126644E+00
(PID.TID 0000.0001)                    cg2d_init_res =    4.10693218728067E-01
(PID.TID 0000.0001)                       cg2d_iters =    24
(PID.TID 0000.0001)                         cg2d_res =    7.16653761532774E-14
(PID.TID 0000.0001) // =======================================================
(PID.TID 0000.0001) // Begin MONITOR dynamic field statistics
(PID.TID 0000.0001) // =======================================================
(PID.TID 0000.0001) %MON time_tsnumber                =                    96
(PID.TID 0000.0001) %MON time_secondsf                =   4.1472000000000E+06
(PID.TID 0000.0001) %MON dynstat_eta_max              =   7.5463241054909E-01
(PID.TID 0000.0001) %MON dynstat_eta_min              =  -1.3882308612663E+00
(PID.TID 0000.0001) %MON dynstat_eta_mean             =   5.6150216065406E-17
(PID.TID 0000.0001) %MON dynstat_eta_sd               =   4.6397844908666E-01
(PID.TID 0000.0001) %MON dynstat_eta_del2             =   1.8630323439420E-02
(PID.TID 0000.0001) %MON dynstat_uvel_max             =   1.6264508643000E-01
(PID.TID 0000.0001) %MON dynstat_uvel_min             =  -1.5681493617352E-01
(PID.TID 0000.0001) %MON dynstat_uvel_mean            =   9.6746450655024E-04
(PID.TID 0000.0001) %MON dynstat_uvel_sd              =   1.5337214287421E-02
(PID.TID 0000.0001) %MON dynstat_uvel_del2            =   4.8442150707460E-03
(PID.TID 0000.0001) %MON dynstat_vvel_max             =   1.6716089363013E-01
(PID.TID 0000.0001) %MON dynstat_vvel_min             =  -1.5040164108252E-01
(PID.TID 0000.0001) %MON dynstat_vvel_mean            =   2.5490689134979E-04
(PID.TID 0000.0001) %MON dynstat_vvel_sd              =   1.4864528287348E-02
(PID.TID 0000.0001) %MON dynstat_vvel_del2            =   4.3386049015531E-03
(PID.TID 0000.0001) %MON dynstat_wvel_max             =   3.8505175690016E-04
(PID.TID 0000.0001) %MON dynstat_wvel_min             =  -1.9904254898773E-04
(PID.TID 0000.0001) %MON dynstat_wvel_mean            =  -1.0127677342680E-22
(PID.TID 0000.0001) %MON dynstat_wvel_sd              =   2.1323275450892E-05
(PID.TID 0000.0001) %MON dynstat_wvel_del2            =   8.3295758031544E-06
(PID.TID 0000.0001) %MON dynstat_theta_max            =   2.9814921512785E+01
(PID.TID 0000.0001) %MON dynstat_theta_min            =  -1.9314502181806E+00
(PID.TID 0000.0001) %MON dynstat_theta_mean           =   3.5888079227186E+00
(PID.TID 0000.0001) %MON dynstat_theta_sd             =   4.3336007349916E+00
(PID.TID 0000.0001) %MON dynstat_theta_del2           =   1.2879776751764E-01
(PID.TID 0000.0001) %MON dynstat_salt_max             =   3.7390413941164E+01
(PID.TID 0000.0001) %MON dynstat_salt_min             =   2.9730039888250E+01
(PID.TID 0000.0001) %MON dynstat_salt_mean            =   3.4716005260811E+01
(PID.TID 0000.0001) %MON dynstat_salt_sd              =   2.9353906507284E-01
(PID.TID 0000.0001) %MON dynstat_salt_del2            =   2.3027231840349E-02
(PID.TID 0000.0001) %MON advcfl_uvel_max              =   2.9667975449907E-02
(PID.TID 0000.0001) %MON advcfl_vvel_max              =   1.6238340346959E-02
(PID.TID 0000.0001) %MON advcfl_wvel_max              =   9.7361720176141E-02
(PID.TID 0000.0001) %MON advcfl_W_hf_max              =   9.1366589382523E-02
(PID.TID 0000.0001) %MON pe_b_mean                    =   2.7547159138280E-04
(PID.TID 0000.0001) %MON ke_max                       =   1.6196408947337E-02
(PID.TID 0000.0001) %MON ke_mean                      =   2.0651904546171E-04
(PID.TID 0000.0001) %MON ke_vol                       =   1.3226782436723E+18
(PID.TID 0000.0001) %MON vort_r_min                   =  -6.7303815199199E-07
(PID.TID 0000.0001) %MON vort_r_max                   =   6.8789311072812E-07
(PID.TID 0000.0001) %MON vort_a_mean                  =  -2.5205768275685E-05
(PID.TID 0000.0001) %MON vort_a_sd                    =   7.3403470816948E-05
(PID.TID 0000.0001) %MON vort_p_mean                  =  -3.1758668149126E-05
(PID.TID 0000.0001) %MON vort_p_sd                    =   1.3126230500352E-04
(PID.TID 0000.0001) %MON surfExpan_theta_mean         =   8.1557389844535E-06
(PID.TID 0000.0001) %MON surfExpan_salt_mean          =  -1.1783899453601E-07
(PID.TID 0000.0001) // =======================================================
(PID.TID 0000.0001) // End MONITOR dynamic field statistics
(PID.TID 0000.0001) // =======================================================
time,SST,SSS,fu,fv,Q,E-P,i0,i1,a,b =   4.1472E+06 -4.9706E-01  3.4437E+01 -1.5711E-02 -1.5930E-02  2.3797E+02  0.0000E+00     2     3  1.0000E-01  9.0000E-01
time,fu0,fu1,fu =   4.1472E+06 -1.4435E-02 -2.7199E-02 -1.5711E-02  1.0000E-01  9.0000E-01
 cg2d: Sum(rhs),rhsMax =   7.88938359086444E-13  6.66306737643195E+00
(PID.TID 0000.0001)                    cg2d_init_res =    4.02429511365519E-01
(PID.TID 0000.0001)                       cg2d_iters =    24
(PID.TID 0000.0001)                         cg2d_res =    7.13283573119526E-14
(PID.TID 0000.0001) // =======================================================
(PID.TID 0000.0001) // Begin MONITOR dynamic field statistics
(PID.TID 0000.0001) // =======================================================
(PID.TID 0000.0001) %MON time_tsnumber                =                    97
(PID.TID 0000.0001) %MON time_secondsf                =   4.1904000000000E+06
(PID.TID 0000.0001) %MON dynstat_eta_max              =   7.5130208028672E-01
(PID.TID 0000.0001) %MON dynstat_eta_min              =  -1.3898541008171E+00
(PID.TID 0000.0001) %MON dynstat_eta_mean             =   1.0997350784586E-16
(PID.TID 0000.0001) %MON dynstat_eta_sd               =   4.6491986405519E-01
(PID.TID 0000.0001) %MON dynstat_eta_del2             =   1.8696221976321E-02
(PID.TID 0000.0001) %MON dynstat_uvel_max             =   1.6044860639840E-01
(PID.TID 0000.0001) %MON dynstat_uvel_min             =  -1.5623899210973E-01
(PID.TID 0000.0001) %MON dynstat_uvel_mean            =   9.5698623266698E-04
(PID.TID 0000.0001) %MON dynstat_uvel_sd              =   1.5294099725793E-02
(PID.TID 0000.0001) %MON dynstat_uvel_del2            =   4.8305786831655E-03
(PID.TID 0000.0001) %MON dynstat_vvel_max             =   1.6730297459135E-01
(PID.TID 0000.0001) %MON dynstat_vvel_min             =  -1.4995319137505E-01
(PID.TID 0000.0001) %MON dynstat_vvel_mean            =   3.5828367871209E-04
(PID.TID 0000.0001) %MON dynstat_vvel_sd              =   1.4813704833296E-02
(PID.TID 0000.0001) %MON dynstat_vvel_del2            =   4.3183910842055E-03
(PID.TID 0000.0001) %MON dynstat_wvel_max             =   3.8347630206333E-04
(PID.TID 0000.0001) %MON dynstat_wvel_min             =  -1.9731892623820E-04
(PID.TID 0000.0001) %MON dynstat_wvel_mean            =  -2.8280668171542E-22
(PID.TID 0000.0001) %MON dynstat_wvel_sd              =   2.1197423207420E-05
(PID.TID 0000.0001) %MON dynstat_wvel_del2            =   8.2648014547014E-06
(PID.TID 0000.0001) %MON dynstat_theta_max            =   2.9817350833531E+01
(PID.TID 0000.0001) %MON dynstat_theta_min            =  -1.9311346048224E+00
(PID.TID 0000.0001) %MON dynstat_theta_mean           =   3.5887697688452E+00
(PID.TID 0000.0001) %MON dynstat_theta_sd             =   4.3335562665218E+00
(PID.TID 0000.0001) %MON dynstat_theta_del2           =   1.2885697112905E-01
(PID.TID 0000.0001) %MON dynstat_salt_max             =   3.7389999866484E+01
(PID.TID 0000.0001) %MON dynstat_salt_min             =   2.9728220804745E+01
(PID.TID 0000.0001) %MON dynstat_salt_mean            =   3.4716006029653E+01
(PID.TID 0000.0001) %MON dynstat_salt_sd              =   2.9351494602658E-01
(PID.TID 0000.0001) %MON dynstat_salt_del2            =   2.3001633283084E-02
(PID.TID 0000.0001) %MON advcfl_uvel_max              =   2.9573533117083E-02
(PID.TID 0000.0001) %MON advcfl_vvel_max              =   1.6252142372990E-02
(PID.TID 0000.0001) %MON advcfl_wvel_max              =   9.3810001485034E-02
(PID.TID 0000.0001) %MON advcfl_W_hf_max              =   8.7345643048070E-02
(PID.TID 0000.0001) %MON pe_b_mean                    =   2.7659059238040E-04
(PID.TID 0000.0001) %MON ke_max                       =   1.5876728580160E-02
(PID.TID 0000.0001) %MON ke_mean                      =   2.0526118419178E-04
(PID.TID 0000.0001) %MON ke_vol                       =   1.3226782436723E+18
(PID.TID 0000.0001) %MON vort_r_min                   =  -6.8922628290456E-07
(PID.TID 0000.0001) %MON vort_r_max                   =   6.8122669626690E-07
(PID.TID 0000.0001) %MON vort_a_mean                  =  -2.5205768312084E-05
(PID.TID 0000.0001) %MON vort_a_sd                    =   7.3403464380531E-05
(PID.TID 0000.0001) %MON vort_p_mean                  =  -3.1758668194987E-05
(PID.TID 0000.0001) %MON vort_p_sd                    =   1.3126223818082E-04
(PID.TID 0000.0001) %MON surfExpan_theta_mean         =   7.7470992387357E-06
(PID.TID 0000.0001) %MON surfExpan_salt_mean          =  -9.4622640048500E-08
(PID.TID 0000.0001) // =======================================================
(PID.TID 0000.0001) // End MONITOR dynamic field statistics
(PID.TID 0000.0001) // =======================================================
time,SST,SSS,fu,fv,Q,E-P,i0,i1,a,b =   4.1904E+06 -4.9126E-01  3.4440E+01 -1.5924E-02 -1.5646E-02  2.3755E+02  0.0000E+00     2     3  1.1667E-01  8.8333E-01
time,fu0,fu1,fu =   4.1904E+06 -1.4435E-02 -2.7199E-02 -1.5924E-02  1.1667E-01  8.8333E-01
 cg2d: Sum(rhs),rhsMax =   4.66002236798602E-13  6.62464364075650E+00
(PID.TID 0000.0001)                    cg2d_init_res =    3.92361364414424E-01
(PID.TID 0000.0001)                       cg2d_iters =    24
(PID.TID 0000.0001)                         cg2d_res =    7.06016623219260E-14
(PID.TID 0000.0001) // =======================================================
(PID.TID 0000.0001) // Begin MONITOR dynamic field statistics
(PID.TID 0000.0001) // =======================================================
(PID.TID 0000.0001) %MON time_tsnumber                =                    98
(PID.TID 0000.0001) %MON time_secondsf                =   4.2336000000000E+06
(PID.TID 0000.0001) %MON dynstat_eta_max              =   7.7912934869975E-01
(PID.TID 0000.0001) %MON dynstat_eta_min              =  -1.3894903701456E+00
(PID.TID 0000.0001) %MON dynstat_eta_mean             =  -1.0064911401173E-16
(PID.TID 0000.0001) %MON dynstat_eta_sd               =   4.6590794119371E-01
(PID.TID 0000.0001) %MON dynstat_eta_del2             =   1.8756553092104E-02
(PID.TID 0000.0001) %MON dynstat_uvel_max             =   1.5765073612563E-01
(PID.TID 0000.0001) %MON dynstat_uvel_min             =  -1.5559606327917E-01
(PID.TID 0000.0001) %MON dynstat_uvel_mean            =   9.4632809486983E-04
(PID.TID 0000.0001) %MON dynstat_uvel_sd              =   1.5275912082503E-02
(PID.TID 0000.0001) %MON dynstat_uvel_del2            =   4.8153186961095E-03
(PID.TID 0000.0001) %MON dynstat_vvel_max             =   1.6727476257464E-01
(PID.TID 0000.0001) %MON dynstat_vvel_min             =  -1.4938817991792E-01
(PID.TID 0000.0001) %MON dynstat_vvel_mean            =   4.6291799593767E-04
(PID.TID 0000.0001) %MON dynstat_vvel_sd              =   1.4760380348271E-02
(PID.TID 0000.0001) %MON dynstat_vvel_del2            =   4.2980212511769E-03
(PID.TID 0000.0001) %MON dynstat_wvel_max             =   3.8157619536406E-04
(PID.TID 0000.0001) %MON dynstat_wvel_min             =  -1.9690816115920E-04
(PID.TID 0000.0001) %MON dynstat_wvel_mean            =  -5.2728035585258E-22
(PID.TID 0000.0001) %MON dynstat_wvel_sd              =   2.1068332096943E-05
(PID.TID 0000.0001) %MON dynstat_wvel_del2            =   8.1939725401037E-06
(PID.TID 0000.0001) %MON dynstat_theta_max            =   2.9819963655948E+01
(PID.TID 0000.0001) %MON dynstat_theta_min            =  -1.9307670889357E+00
(PID.TID 0000.0001) %MON dynstat_theta_mean           =   3.5887355372041E+00
(PID.TID 0000.0001) %MON dynstat_theta_sd             =   4.3335251214513E+00
(PID.TID 0000.0001) %MON dynstat_theta_del2           =   1.2884718815671E-01
(PID.TID 0000.0001) %MON dynstat_salt_max             =   3.7389583289815E+01
(PID.TID 0000.0001) %MON dynstat_salt_min             =   2.9726420739614E+01
(PID.TID 0000.0001) %MON dynstat_salt_mean            =   3.4716006551138E+01
(PID.TID 0000.0001) %MON dynstat_salt_sd              =   2.9349012157814E-01
(PID.TID 0000.0001) %MON dynstat_salt_del2            =   2.2974754707118E-02
(PID.TID 0000.0001) %MON advcfl_uvel_max              =   2.9473487992052E-02
(PID.TID 0000.0001) %MON advcfl_vvel_max              =   1.6249401801799E-02
(PID.TID 0000.0001) %MON advcfl_wvel_max              =   8.8509107249648E-02
(PID.TID 0000.0001) %MON advcfl_W_hf_max              =   8.1633308750040E-02
(PID.TID 0000.0001) %MON pe_b_mean                    =   2.7776749735624E-04
(PID.TID 0000.0001) %MON ke_max                       =   1.5683259402493E-02
(PID.TID 0000.0001) %MON ke_mean                      =   2.0432995163305E-04
(PID.TID 0000.0001) %MON ke_vol                       =   1.3226782436723E+18
(PID.TID 0000.0001) %MON vort_r_min                   =  -7.0510623022463E-07
(PID.TID 0000.0001) %MON vort_r_max                   =   6.7440573385170E-07
(PID.TID 0000.0001) %MON vort_a_mean                  =  -2.5205768348487E-05
(PID.TID 0000.0001) %MON vort_a_sd                    =   7.3403458041917E-05
(PID.TID 0000.0001) %MON vort_p_mean                  =  -3.1758668240855E-05
(PID.TID 0000.0001) %MON vort_p_sd                    =   1.3126216852648E-04
(PID.TID 0000.0001) %MON surfExpan_theta_mean         =   7.3534595933744E-06
(PID.TID 0000.0001) %MON surfExpan_salt_mean          =  -7.2250768653821E-08
(PID.TID 0000.0001) // =======================================================
(PID.TID 0000.0001) // End MONITOR dynamic field statistics
(PID.TID 0000.0001) // =======================================================
time,SST,SSS,fu,fv,Q,E-P,i0,i1,a,b =   4.2336E+06 -4.8546E-01  3.4442E+01 -1.6137E-02 -1.5361E-02  2.3714E+02  0.0000E+00     2     3  1.3333E-01  8.6667E-01
time,fu0,fu1,fu =   4.2336E+06 -1.4435E-02 -2.7199E-02 -1.6137E-02  1.3333E-01  8.6667E-01
 cg2d: Sum(rhs),rhsMax =  -2.53727594490272E-13  6.75051692291241E+00
(PID.TID 0000.0001)                    cg2d_init_res =    3.72014814355215E-01
(PID.TID 0000.0001)                       cg2d_iters =    24
(PID.TID 0000.0001)                         cg2d_res =    6.81351215421550E-14
(PID.TID 0000.0001) // =======================================================
(PID.TID 0000.0001) // Begin MONITOR dynamic field statistics
(PID.TID 0000.0001) // =======================================================
(PID.TID 0000.0001) %MON time_tsnumber                =                    99
(PID.TID 0000.0001) %MON time_secondsf                =   4.2768000000000E+06
(PID.TID 0000.0001) %MON dynstat_eta_max              =   8.0296686920784E-01
(PID.TID 0000.0001) %MON dynstat_eta_min              =  -1.3873065833436E+00
(PID.TID 0000.0001) %MON dynstat_eta_mean             =  -3.3349142582637E-16
(PID.TID 0000.0001) %MON dynstat_eta_sd               =   4.6693902839784E-01
(PID.TID 0000.0001) %MON dynstat_eta_del2             =   1.8828487644830E-02
(PID.TID 0000.0001) %MON dynstat_uvel_max             =   1.5428999460061E-01
(PID.TID 0000.0001) %MON dynstat_uvel_min             =  -1.5489539974423E-01
(PID.TID 0000.0001) %MON dynstat_uvel_mean            =   9.3585530714967E-04
(PID.TID 0000.0001) %MON dynstat_uvel_sd              =   1.5282014686851E-02
(PID.TID 0000.0001) %MON dynstat_uvel_del2            =   4.7989080475439E-03
(PID.TID 0000.0001) %MON dynstat_vvel_max             =   1.6707365758741E-01
(PID.TID 0000.0001) %MON dynstat_vvel_min             =  -1.4870778561839E-01
(PID.TID 0000.0001) %MON dynstat_vvel_mean            =   5.6814073594066E-04
(PID.TID 0000.0001) %MON dynstat_vvel_sd              =   1.4705297885798E-02
(PID.TID 0000.0001) %MON dynstat_vvel_del2            =   4.2776172792315E-03
(PID.TID 0000.0001) %MON dynstat_wvel_max             =   3.7934337166286E-04
(PID.TID 0000.0001) %MON dynstat_wvel_min             =  -1.9636187810857E-04
(PID.TID 0000.0001) %MON dynstat_wvel_mean            =  -1.7983424474599E-22
(PID.TID 0000.0001) %MON dynstat_wvel_sd              =   2.0938110002830E-05
(PID.TID 0000.0001) %MON dynstat_wvel_del2            =   8.1189629313406E-06
(PID.TID 0000.0001) %MON dynstat_theta_max            =   2.9822800810993E+01
(PID.TID 0000.0001) %MON dynstat_theta_min            =  -1.9303399561698E+00
(PID.TID 0000.0001) %MON dynstat_theta_mean           =   3.5887050731814E+00
(PID.TID 0000.0001) %MON dynstat_theta_sd             =   4.3335069872698E+00
(PID.TID 0000.0001) %MON dynstat_theta_del2           =   1.2883201666853E-01
(PID.TID 0000.0001) %MON dynstat_salt_max             =   3.7389164840019E+01
(PID.TID 0000.0001) %MON dynstat_salt_min             =   2.9724641874440E+01
(PID.TID 0000.0001) %MON dynstat_salt_mean            =   3.4716006865943E+01
(PID.TID 0000.0001) %MON dynstat_salt_sd              =   2.9346445227603E-01
(PID.TID 0000.0001) %MON dynstat_salt_del2            =   2.2947861291934E-02
(PID.TID 0000.0001) %MON advcfl_uvel_max              =   2.9367039717935E-02
(PID.TID 0000.0001) %MON advcfl_vvel_max              =   1.6229866064958E-02
(PID.TID 0000.0001) %MON advcfl_wvel_max              =   8.1616063423981E-02
(PID.TID 0000.0001) %MON advcfl_W_hf_max              =   7.4386814144344E-02
(PID.TID 0000.0001) %MON pe_b_mean                    =   2.7899829598146E-04
(PID.TID 0000.0001) %MON ke_max                       =   1.5581506148411E-02
(PID.TID 0000.0001) %MON ke_mean                      =   2.0372576985061E-04
(PID.TID 0000.0001) %MON ke_vol                       =   1.3226782436723E+18
(PID.TID 0000.0001) %MON vort_r_min                   =  -7.2051852663327E-07
(PID.TID 0000.0001) %MON vort_r_max                   =   6.6749430386459E-07
(PID.TID 0000.0001) %MON vort_a_mean                  =  -2.5205768384827E-05
(PID.TID 0000.0001) %MON vort_a_sd                    =   7.3403451907496E-05
(PID.TID 0000.0001) %MON vort_p_mean                  =  -3.1758668286643E-05
(PID.TID 0000.0001) %MON vort_p_sd                    =   1.3126209659812E-04
(PID.TID 0000.0001) %MON surfExpan_theta_mean         =   6.9739160021154E-06
(PID.TID 0000.0001) %MON surfExpan_salt_mean          =  -5.2263636218987E-08
(PID.TID 0000.0001) // =======================================================
(PID.TID 0000.0001) // End MONITOR dynamic field statistics
(PID.TID 0000.0001) // =======================================================
time,SST,SSS,fu,fv,Q,E-P,i0,i1,a,b =   4.2768E+06 -4.7966E-01  3.4445E+01 -1.6349E-02 -1.5077E-02  2.3672E+02  0.0000E+00     2     3  1.5000E-01  8.5000E-01
time,fu0,fu1,fu =   4.2768E+06 -1.4435E-02 -2.7199E-02 -1.6349E-02  1.5000E-01  8.5000E-01
 cg2d: Sum(rhs),rhsMax =   4.47780701406941E-13  6.91710388871525E+00
(PID.TID 0000.0001)                    cg2d_init_res =    3.50442421001049E-01
(PID.TID 0000.0001)                       cg2d_iters =    24
(PID.TID 0000.0001)                         cg2d_res =    6.56674361144597E-14
(PID.TID 0000.0001) // =======================================================
(PID.TID 0000.0001) // Begin MONITOR dynamic field statistics
(PID.TID 0000.0001) // =======================================================
(PID.TID 0000.0001) %MON time_tsnumber                =                   100
(PID.TID 0000.0001) %MON time_secondsf                =   4.3200000000000E+06
(PID.TID 0000.0001) %MON dynstat_eta_max              =   8.2237354134111E-01
(PID.TID 0000.0001) %MON dynstat_eta_min              =  -1.3835306610296E+00
(PID.TID 0000.0001) %MON dynstat_eta_mean             =  -6.4180065060439E-17
(PID.TID 0000.0001) %MON dynstat_eta_sd               =   4.6800752563334E-01
(PID.TID 0000.0001) %MON dynstat_eta_del2             =   1.8914423190621E-02
(PID.TID 0000.0001) %MON dynstat_uvel_max             =   1.5040824080805E-01
(PID.TID 0000.0001) %MON dynstat_uvel_min             =  -1.5414371807632E-01
(PID.TID 0000.0001) %MON dynstat_uvel_mean            =   9.2590382510220E-04
(PID.TID 0000.0001) %MON dynstat_uvel_sd              =   1.5311066729847E-02
(PID.TID 0000.0001) %MON dynstat_uvel_del2            =   4.7819423059711E-03
(PID.TID 0000.0001) %MON dynstat_vvel_max             =   1.6669696686564E-01
(PID.TID 0000.0001) %MON dynstat_vvel_min             =  -1.4791578352332E-01
(PID.TID 0000.0001) %MON dynstat_vvel_mean            =   6.7316958092641E-04
(PID.TID 0000.0001) %MON dynstat_vvel_sd              =   1.4649474268889E-02
(PID.TID 0000.0001) %MON dynstat_vvel_del2            =   4.2580552843233E-03
(PID.TID 0000.0001) %MON dynstat_wvel_max             =   3.7677456289111E-04
(PID.TID 0000.0001) %MON dynstat_wvel_min             =  -1.9567832255339E-04
(PID.TID 0000.0001) %MON dynstat_wvel_mean            =   2.8605976008189E-22
(PID.TID 0000.0001) %MON dynstat_wvel_sd              =   2.0809079030189E-05
(PID.TID 0000.0001) %MON dynstat_wvel_del2            =   8.0431031777579E-06
(PID.TID 0000.0001) %MON dynstat_theta_max            =   2.9825894011836E+01
(PID.TID 0000.0001) %MON dynstat_theta_min            =  -1.9298641005102E+00
(PID.TID 0000.0001) %MON dynstat_theta_mean           =   3.5886782266677E+00
(PID.TID 0000.0001) %MON dynstat_theta_sd             =   4.3335019410865E+00
(PID.TID 0000.0001) %MON dynstat_theta_del2           =   1.2880597269827E-01
(PID.TID 0000.0001) %MON dynstat_salt_max             =   3.7388745171978E+01
(PID.TID 0000.0001) %MON dynstat_salt_min             =   2.9722886340482E+01
(PID.TID 0000.0001) %MON dynstat_salt_mean            =   3.4716007026804E+01
(PID.TID 0000.0001) %MON dynstat_salt_sd              =   2.9343801162315E-01
(PID.TID 0000.0001) %MON dynstat_salt_del2            =   2.2919368240155E-02
(PID.TID 0000.0001) %MON advcfl_uvel_max              =   2.9253336122062E-02
(PID.TID 0000.0001) %MON advcfl_vvel_max              =   1.6193273582035E-02
(PID.TID 0000.0001) %MON advcfl_wvel_max              =   7.3317929284501E-02
(PID.TID 0000.0001) %MON advcfl_W_hf_max              =   6.5792483937722E-02
(PID.TID 0000.0001) %MON pe_b_mean                    =   2.8027662129303E-04
(PID.TID 0000.0001) %MON ke_max                       =   1.5468495292166E-02
(PID.TID 0000.0001) %MON ke_mean                      =   2.0344399481459E-04
(PID.TID 0000.0001) %MON ke_vol                       =   1.3226782436723E+18
(PID.TID 0000.0001) %MON vort_r_min                   =  -7.3531718202623E-07
(PID.TID 0000.0001) %MON vort_r_max                   =   6.6054554236239E-07
(PID.TID 0000.0001) %MON vort_a_mean                  =  -2.5205768421057E-05
(PID.TID 0000.0001) %MON vort_a_sd                    =   7.3403446074116E-05
(PID.TID 0000.0001) %MON vort_p_mean                  =  -3.1758668332292E-05
(PID.TID 0000.0001) %MON vort_p_sd                    =   1.3126202297287E-04
(PID.TID 0000.0001) %MON surfExpan_theta_mean         =   6.6066851593513E-06
(PID.TID 0000.0001) %MON surfExpan_salt_mean          =  -3.6092351325287E-08
(PID.TID 0000.0001) // =======================================================
(PID.TID 0000.0001) // End MONITOR dynamic field statistics
(PID.TID 0000.0001) // =======================================================
time,SST,SSS,fu,fv,Q,E-P,i0,i1,a,b =   4.3200E+06 -4.7386E-01  3.4447E+01 -1.6562E-02 -1.4793E-02  2.3630E+02  0.0000E+00     2     3  1.6667E-01  8.3333E-01
time,fu0,fu1,fu =   4.3200E+06 -1.4435E-02 -2.7199E-02 -1.6562E-02  1.6667E-01  8.3333E-01
 cg2d: Sum(rhs),rhsMax =  -9.31504873236122E-13  7.04306519346371E+00
(PID.TID 0000.0001)                    cg2d_init_res =    3.32878879718528E-01
(PID.TID 0000.0001)                       cg2d_iters =    24
(PID.TID 0000.0001)                         cg2d_res =    6.40804485458558E-14
(PID.TID 0000.0001) // =======================================================
(PID.TID 0000.0001) // Begin MONITOR dynamic field statistics
(PID.TID 0000.0001) // =======================================================
(PID.TID 0000.0001) %MON time_tsnumber                =                   101
(PID.TID 0000.0001) %MON time_secondsf                =   4.3632000000000E+06
(PID.TID 0000.0001) %MON dynstat_eta_max              =   8.3706698582939E-01
(PID.TID 0000.0001) %MON dynstat_eta_min              =  -1.3784337289859E+00
(PID.TID 0000.0001) %MON dynstat_eta_mean             =  -1.9989478328813E-16
(PID.TID 0000.0001) %MON dynstat_eta_sd               =   4.6910688308491E-01
(PID.TID 0000.0001) %MON dynstat_eta_del2             =   1.8980264147968E-02
(PID.TID 0000.0001) %MON dynstat_uvel_max             =   1.4848386040943E-01
(PID.TID 0000.0001) %MON dynstat_uvel_min             =  -1.5334525344083E-01
(PID.TID 0000.0001) %MON dynstat_uvel_mean            =   9.1677436597518E-04
(PID.TID 0000.0001) %MON dynstat_uvel_sd              =   1.5361038725619E-02
(PID.TID 0000.0001) %MON dynstat_uvel_del2            =   4.7645204520748E-03
(PID.TID 0000.0001) %MON dynstat_vvel_max             =   1.6614203038420E-01
(PID.TID 0000.0001) %MON dynstat_vvel_min             =  -1.4701840558808E-01
(PID.TID 0000.0001) %MON dynstat_vvel_mean            =   7.7713320133591E-04
(PID.TID 0000.0001) %MON dynstat_vvel_sd              =   1.4594138744418E-02
(PID.TID 0000.0001) %MON dynstat_vvel_del2            =   4.2409184663262E-03
(PID.TID 0000.0001) %MON dynstat_wvel_max             =   3.7387139393323E-04
(PID.TID 0000.0001) %MON dynstat_wvel_min             =  -1.9485785800336E-04
(PID.TID 0000.0001) %MON dynstat_wvel_mean            =   1.7783568614508E-22
(PID.TID 0000.0001) %MON dynstat_wvel_sd              =   2.0683495538873E-05
(PID.TID 0000.0001) %MON dynstat_wvel_del2            =   7.9674708011268E-06
(PID.TID 0000.0001) %MON dynstat_theta_max            =   2.9829260957377E+01
(PID.TID 0000.0001) %MON dynstat_theta_min            =  -1.9293508712986E+00
(PID.TID 0000.0001) %MON dynstat_theta_mean           =   3.5886548996659E+00
(PID.TID 0000.0001) %MON dynstat_theta_sd             =   4.3335098286478E+00
(PID.TID 0000.0001) %MON dynstat_theta_del2           =   1.2877171237115E-01
(PID.TID 0000.0001) %MON dynstat_salt_max             =   3.7388324521273E+01
(PID.TID 0000.0001) %MON dynstat_salt_min             =   2.9721156175382E+01
(PID.TID 0000.0001) %MON dynstat_salt_mean            =   3.4716007097794E+01
(PID.TID 0000.0001) %MON dynstat_salt_sd              =   2.9341080229560E-01
(PID.TID 0000.0001) %MON dynstat_salt_del2            =   2.2891626776344E-02
(PID.TID 0000.0001) %MON advcfl_uvel_max              =   2.9131501207553E-02
(PID.TID 0000.0001) %MON advcfl_vvel_max              =   1.6139365952918E-02
(PID.TID 0000.0001) %MON advcfl_wvel_max              =   6.8343292251368E-02
(PID.TID 0000.0001) %MON advcfl_W_hf_max              =   6.3420073288975E-02
(PID.TID 0000.0001) %MON pe_b_mean                    =   2.8159491670345E-04
(PID.TID 0000.0001) %MON ke_max                       =   1.5407198876882E-02
(PID.TID 0000.0001) %MON ke_mean                      =   2.0347390734398E-04
(PID.TID 0000.0001) %MON ke_vol                       =   1.3226782436723E+18
(PID.TID 0000.0001) %MON vort_r_min                   =  -7.4937162808659E-07
(PID.TID 0000.0001) %MON vort_r_max                   =   6.5360144829346E-07
(PID.TID 0000.0001) %MON vort_a_mean                  =  -2.5205768457152E-05
(PID.TID 0000.0001) %MON vort_a_sd                    =   7.3403440626757E-05
(PID.TID 0000.0001) %MON vort_p_mean                  =  -3.1758668377770E-05
(PID.TID 0000.0001) %MON vort_p_sd                    =   1.3126194824929E-04
(PID.TID 0000.0001) %MON surfExpan_theta_mean         =   6.2493592699981E-06
(PID.TID 0000.0001) %MON surfExpan_salt_mean          =  -2.4929149519697E-08
(PID.TID 0000.0001) // =======================================================
(PID.TID 0000.0001) // End MONITOR dynamic field statistics
(PID.TID 0000.0001) // =======================================================
time,SST,SSS,fu,fv,Q,E-P,i0,i1,a,b =   4.3632E+06 -4.6807E-01  3.4450E+01 -1.6775E-02 -1.4508E-02  2.3588E+02  0.0000E+00     2     3  1.8333E-01  8.1667E-01
time,fu0,fu1,fu =   4.3632E+06 -1.4435E-02 -2.7199E-02 -1.6775E-02  1.8333E-01  8.1667E-01
 cg2d: Sum(rhs),rhsMax =   6.89656665109339E-13  7.12733378589129E+00
(PID.TID 0000.0001)                    cg2d_init_res =    3.19783153894829E-01
(PID.TID 0000.0001)                       cg2d_iters =    24
(PID.TID 0000.0001)                         cg2d_res =    6.30925732793167E-14
(PID.TID 0000.0001) // =======================================================
(PID.TID 0000.0001) // Begin MONITOR dynamic field statistics
(PID.TID 0000.0001) // =======================================================
(PID.TID 0000.0001) %MON time_tsnumber                =                   102
(PID.TID 0000.0001) %MON time_secondsf                =   4.4064000000000E+06
(PID.TID 0000.0001) %MON dynstat_eta_max              =   8.4692444533062E-01
(PID.TID 0000.0001) %MON dynstat_eta_min              =  -1.3723121527308E+00
(PID.TID 0000.0001) %MON dynstat_eta_mean             =  -1.2640177681270E-16
(PID.TID 0000.0001) %MON dynstat_eta_sd               =   4.7023055225062E-01
(PID.TID 0000.0001) %MON dynstat_eta_del2             =   1.9038232330848E-02
(PID.TID 0000.0001) %MON dynstat_uvel_max             =   1.5522111325226E-01
(PID.TID 0000.0001) %MON dynstat_uvel_min             =  -1.5250194749851E-01
(PID.TID 0000.0001) %MON dynstat_uvel_mean            =   9.0872553533815E-04
(PID.TID 0000.0001) %MON dynstat_uvel_sd              =   1.5429281323958E-02
(PID.TID 0000.0001) %MON dynstat_uvel_del2            =   4.7467868883729E-03
(PID.TID 0000.0001) %MON dynstat_vvel_max             =   1.6540636306620E-01
(PID.TID 0000.0001) %MON dynstat_vvel_min             =  -1.4602398460506E-01
(PID.TID 0000.0001) %MON dynstat_vvel_mean            =   8.7909892669585E-04
(PID.TID 0000.0001) %MON dynstat_vvel_sd              =   1.4540644634879E-02
(PID.TID 0000.0001) %MON dynstat_vvel_del2            =   4.2262932854321E-03
(PID.TID 0000.0001) %MON dynstat_wvel_max             =   3.7064091693874E-04
(PID.TID 0000.0001) %MON dynstat_wvel_min             =  -1.9390283485239E-04
(PID.TID 0000.0001) %MON dynstat_wvel_mean            =  -3.0367094898518E-22
(PID.TID 0000.0001) %MON dynstat_wvel_sd              =   2.0563290808907E-05
(PID.TID 0000.0001) %MON dynstat_wvel_del2            =   7.8985485284891E-06
(PID.TID 0000.0001) %MON dynstat_theta_max            =   2.9832902992874E+01
(PID.TID 0000.0001) %MON dynstat_theta_min            =  -1.9288068995704E+00
(PID.TID 0000.0001) %MON dynstat_theta_mean           =   3.5886349682711E+00
(PID.TID 0000.0001) %MON dynstat_theta_sd             =   4.3335304543742E+00
(PID.TID 0000.0001) %MON dynstat_theta_del2           =   1.2873204337266E-01
(PID.TID 0000.0001) %MON dynstat_salt_max             =   3.7387902756513E+01
(PID.TID 0000.0001) %MON dynstat_salt_min             =   2.9719453292929E+01
(PID.TID 0000.0001) %MON dynstat_salt_mean            =   3.4716007151680E+01
(PID.TID 0000.0001) %MON dynstat_salt_sd              =   2.9338279025736E-01
(PID.TID 0000.0001) %MON dynstat_salt_del2            =   2.2862797650232E-02
(PID.TID 0000.0001) %MON advcfl_uvel_max              =   2.9000679240807E-02
(PID.TID 0000.0001) %MON advcfl_vvel_max              =   1.6067901772317E-02
(PID.TID 0000.0001) %MON advcfl_wvel_max              =   6.8907849272216E-02
(PID.TID 0000.0001) %MON advcfl_W_hf_max              =   6.5483306268670E-02
(PID.TID 0000.0001) %MON pe_b_mean                    =   2.8294556194987E-04
(PID.TID 0000.0001) %MON ke_max                       =   1.5334532235974E-02
(PID.TID 0000.0001) %MON ke_mean                      =   2.0379796470960E-04
(PID.TID 0000.0001) %MON ke_vol                       =   1.3226782436723E+18
(PID.TID 0000.0001) %MON vort_r_min                   =  -7.6256816346743E-07
(PID.TID 0000.0001) %MON vort_r_max                   =   6.4669321685945E-07
(PID.TID 0000.0001) %MON vort_a_mean                  =  -2.5205768493097E-05
(PID.TID 0000.0001) %MON vort_a_sd                    =   7.3403435636226E-05
(PID.TID 0000.0001) %MON vort_p_mean                  =  -3.1758668423060E-05
(PID.TID 0000.0001) %MON vort_p_sd                    =   1.3126187301504E-04
(PID.TID 0000.0001) %MON surfExpan_theta_mean         =   5.8992519616828E-06
(PID.TID 0000.0001) %MON surfExpan_salt_mean          =  -1.9743784591019E-08
(PID.TID 0000.0001) // =======================================================
(PID.TID 0000.0001) // End MONITOR dynamic field statistics
(PID.TID 0000.0001) // =======================================================
time,SST,SSS,fu,fv,Q,E-P,i0,i1,a,b =   4.4064E+06 -4.6227E-01  3.4453E+01 -1.6988E-02 -1.4224E-02  2.3546E+02  0.0000E+00     2     3  2.0000E-01  8.0000E-01
time,fu0,fu1,fu =   4.4064E+06 -1.4435E-02 -2.7199E-02 -1.6988E-02  2.0000E-01  8.0000E-01
 cg2d: Sum(rhs),rhsMax =  -6.23556761780719E-13  7.17018384152810E+00
(PID.TID 0000.0001)                    cg2d_init_res =    3.11468170350251E-01
(PID.TID 0000.0001)                       cg2d_iters =    24
(PID.TID 0000.0001)                         cg2d_res =    6.21261740665194E-14
(PID.TID 0000.0001) // =======================================================
(PID.TID 0000.0001) // Begin MONITOR dynamic field statistics
(PID.TID 0000.0001) // =======================================================
(PID.TID 0000.0001) %MON time_tsnumber                =                   103
(PID.TID 0000.0001) %MON time_secondsf                =   4.4496000000000E+06
(PID.TID 0000.0001) %MON dynstat_eta_max              =   8.5197884212084E-01
(PID.TID 0000.0001) %MON dynstat_eta_min              =  -1.3654700823099E+00
(PID.TID 0000.0001) %MON dynstat_eta_mean             =   7.4883651448200E-17
(PID.TID 0000.0001) %MON dynstat_eta_sd               =   4.7137274981078E-01
(PID.TID 0000.0001) %MON dynstat_eta_del2             =   1.9091442942531E-02
(PID.TID 0000.0001) %MON dynstat_uvel_max             =   1.6188541069082E-01
(PID.TID 0000.0001) %MON dynstat_uvel_min             =  -1.5161375343839E-01
(PID.TID 0000.0001) %MON dynstat_uvel_mean            =   9.0197205020019E-04
(PID.TID 0000.0001) %MON dynstat_uvel_sd              =   1.5512639418402E-02
(PID.TID 0000.0001) %MON dynstat_uvel_del2            =   4.7306314031222E-03
(PID.TID 0000.0001) %MON dynstat_vvel_max             =   1.6448780190264E-01
(PID.TID 0000.0001) %MON dynstat_vvel_min             =  -1.4494272938946E-01
(PID.TID 0000.0001) %MON dynstat_vvel_mean            =   9.7810761657522E-04
(PID.TID 0000.0001) %MON dynstat_vvel_sd              =   1.4490367005420E-02
(PID.TID 0000.0001) %MON dynstat_vvel_del2            =   4.2142503557671E-03
(PID.TID 0000.0001) %MON dynstat_wvel_max             =   3.6709500016842E-04
(PID.TID 0000.0001) %MON dynstat_wvel_min             =  -1.9281723553414E-04
(PID.TID 0000.0001) %MON dynstat_wvel_mean            =   1.3314494545230E-22
(PID.TID 0000.0001) %MON dynstat_wvel_sd              =   2.0449953449335E-05
(PID.TID 0000.0001) %MON dynstat_wvel_del2            =   7.8373824570939E-06
(PID.TID 0000.0001) %MON dynstat_theta_max            =   2.9836902316884E+01
(PID.TID 0000.0001) %MON dynstat_theta_min            =  -1.9282383822418E+00
(PID.TID 0000.0001) %MON dynstat_theta_mean           =   3.5886183810973E+00
(PID.TID 0000.0001) %MON dynstat_theta_sd             =   4.3335639142410E+00
(PID.TID 0000.0001) %MON dynstat_theta_del2           =   1.2867536829801E-01
(PID.TID 0000.0001) %MON dynstat_salt_max             =   3.7387479450472E+01
(PID.TID 0000.0001) %MON dynstat_salt_min             =   2.9717779464643E+01
(PID.TID 0000.0001) %MON dynstat_salt_mean            =   3.4716007267682E+01
(PID.TID 0000.0001) %MON dynstat_salt_sd              =   2.9335407451528E-01
(PID.TID 0000.0001) %MON dynstat_salt_del2            =   2.2832691268246E-02
(PID.TID 0000.0001) %MON advcfl_uvel_max              =   2.8860070162496E-02
(PID.TID 0000.0001) %MON advcfl_vvel_max              =   1.5978670921252E-02
(PID.TID 0000.0001) %MON advcfl_wvel_max              =   6.8820442490329E-02
(PID.TID 0000.0001) %MON advcfl_W_hf_max              =   6.7096140820918E-02
(PID.TID 0000.0001) %MON pe_b_mean                    =   2.8432178998671E-04
(PID.TID 0000.0001) %MON ke_max                       =   1.5249804749471E-02
(PID.TID 0000.0001) %MON ke_mean                      =   2.0439147423637E-04
(PID.TID 0000.0001) %MON ke_vol                       =   1.3226782436723E+18
(PID.TID 0000.0001) %MON vort_r_min                   =  -7.7481090373320E-07
(PID.TID 0000.0001) %MON vort_r_max                   =   6.3984206196650E-07
(PID.TID 0000.0001) %MON vort_a_mean                  =  -2.5205768528889E-05
(PID.TID 0000.0001) %MON vort_a_sd                    =   7.3403431157940E-05
(PID.TID 0000.0001) %MON vort_p_mean                  =  -3.1758668468157E-05
(PID.TID 0000.0001) %MON vort_p_sd                    =   1.3126179786724E-04
(PID.TID 0000.0001) %MON surfExpan_theta_mean         =   5.5552340911179E-06
(PID.TID 0000.0001) %MON surfExpan_salt_mean          =  -2.0839601814820E-08
(PID.TID 0000.0001) // =======================================================
(PID.TID 0000.0001) // End MONITOR dynamic field statistics
(PID.TID 0000.0001) // =======================================================
time,SST,SSS,fu,fv,Q,E-P,i0,i1,a,b =   4.4496E+06 -4.5647E-01  3.4455E+01 -1.7200E-02 -1.3940E-02  2.3505E+02  0.0000E+00     2     3  2.1667E-01  7.8333E-01
time,fu0,fu1,fu =   4.4496E+06 -1.4435E-02 -2.7199E-02 -1.7200E-02  2.1667E-01  7.8333E-01
 cg2d: Sum(rhs),rhsMax =   1.26954002865887E-13  7.17315854442306E+00
(PID.TID 0000.0001)                    cg2d_init_res =    3.07999261185062E-01
(PID.TID 0000.0001)                       cg2d_iters =    24
(PID.TID 0000.0001)                         cg2d_res =    5.77459918843045E-14
(PID.TID 0000.0001) // =======================================================
(PID.TID 0000.0001) // Begin MONITOR dynamic field statistics
(PID.TID 0000.0001) // =======================================================
(PID.TID 0000.0001) %MON time_tsnumber                =                   104
(PID.TID 0000.0001) %MON time_secondsf                =   4.4928000000000E+06
(PID.TID 0000.0001) %MON dynstat_eta_max              =   8.5241020269088E-01
(PID.TID 0000.0001) %MON dynstat_eta_min              =  -1.3729012229496E+00
(PID.TID 0000.0001) %MON dynstat_eta_mean             =  -2.1976362497756E-16
(PID.TID 0000.0001) %MON dynstat_eta_sd               =   4.7252899236370E-01
(PID.TID 0000.0001) %MON dynstat_eta_del2             =   1.9132591610161E-02
(PID.TID 0000.0001) %MON dynstat_uvel_max             =   1.6836053140553E-01
(PID.TID 0000.0001) %MON dynstat_uvel_min             =  -1.5067903562370E-01
(PID.TID 0000.0001) %MON dynstat_uvel_mean            =   8.9667897963223E-04
(PID.TID 0000.0001) %MON dynstat_uvel_sd              =   1.5607608325312E-02
(PID.TID 0000.0001) %MON dynstat_uvel_del2            =   4.7164675017812E-03
(PID.TID 0000.0001) %MON dynstat_vvel_max             =   1.6338465269255E-01
(PID.TID 0000.0001) %MON dynstat_vvel_min             =  -1.4378632352272E-01
(PID.TID 0000.0001) %MON dynstat_vvel_mean            =   1.0732036689504E-03
(PID.TID 0000.0001) %MON dynstat_vvel_sd              =   1.4444587117296E-02
(PID.TID 0000.0001) %MON dynstat_vvel_del2            =   4.2044575633544E-03
(PID.TID 0000.0001) %MON dynstat_wvel_max             =   3.6325009980315E-04
(PID.TID 0000.0001) %MON dynstat_wvel_min             =  -1.9160678641274E-04
(PID.TID 0000.0001) %MON dynstat_wvel_mean            =  -8.4684564042398E-23
(PID.TID 0000.0001) %MON dynstat_wvel_sd              =   2.0344215352960E-05
(PID.TID 0000.0001) %MON dynstat_wvel_del2            =   7.7820017753020E-06
(PID.TID 0000.0001) %MON dynstat_theta_max            =   2.9841194091396E+01
(PID.TID 0000.0001) %MON dynstat_theta_min            =  -1.9276514958765E+00
(PID.TID 0000.0001) %MON dynstat_theta_mean           =   3.5886051232850E+00
(PID.TID 0000.0001) %MON dynstat_theta_sd             =   4.3336100463511E+00
(PID.TID 0000.0001) %MON dynstat_theta_del2           =   1.2861032281875E-01
(PID.TID 0000.0001) %MON dynstat_salt_max             =   3.7387053969946E+01
(PID.TID 0000.0001) %MON dynstat_salt_min             =   2.9716136313581E+01
(PID.TID 0000.0001) %MON dynstat_salt_mean            =   3.4716007520267E+01
(PID.TID 0000.0001) %MON dynstat_salt_sd              =   2.9332475717767E-01
(PID.TID 0000.0001) %MON dynstat_salt_del2            =   2.2802808074628E-02
(PID.TID 0000.0001) %MON advcfl_uvel_max              =   2.8708963765770E-02
(PID.TID 0000.0001) %MON advcfl_vvel_max              =   1.5871508821685E-02
(PID.TID 0000.0001) %MON advcfl_wvel_max              =   6.8123350433362E-02
(PID.TID 0000.0001) %MON advcfl_W_hf_max              =   6.8232887598665E-02
(PID.TID 0000.0001) %MON pe_b_mean                    =   2.8571834142497E-04
(PID.TID 0000.0001) %MON ke_max                       =   1.5152392523606E-02
(PID.TID 0000.0001) %MON ke_mean                      =   2.0522274501136E-04
(PID.TID 0000.0001) %MON ke_vol                       =   1.3226782436723E+18
(PID.TID 0000.0001) %MON vort_r_min                   =  -7.8602225564578E-07
(PID.TID 0000.0001) %MON vort_r_max                   =   6.3306044906894E-07
(PID.TID 0000.0001) %MON vort_a_mean                  =  -2.5205768564534E-05
(PID.TID 0000.0001) %MON vort_a_sd                    =   7.3403427230493E-05
(PID.TID 0000.0001) %MON vort_p_mean                  =  -3.1758668513069E-05
(PID.TID 0000.0001) %MON vort_p_sd                    =   1.3126172336399E-04
(PID.TID 0000.0001) %MON surfExpan_theta_mean         =   5.2146834433724E-06
(PID.TID 0000.0001) %MON surfExpan_salt_mean          =  -2.8644427291314E-08
(PID.TID 0000.0001) // =======================================================
(PID.TID 0000.0001) // End MONITOR dynamic field statistics
(PID.TID 0000.0001) // =======================================================
time,SST,SSS,fu,fv,Q,E-P,i0,i1,a,b =   4.4928E+06 -4.5067E-01  3.4458E+01 -1.7413E-02 -1.3655E-02  2.3463E+02  0.0000E+00     2     3  2.3333E-01  7.6667E-01
time,fu0,fu1,fu =   4.4928E+06 -1.4435E-02 -2.7199E-02 -1.7413E-02  2.3333E-01  7.6667E-01
 cg2d: Sum(rhs),rhsMax =   7.86870568703080E-15  7.13896025758481E+00
(PID.TID 0000.0001)                    cg2d_init_res =    3.09116087358247E-01
(PID.TID 0000.0001)                       cg2d_iters =    24
(PID.TID 0000.0001)                         cg2d_res =    5.33334600372896E-14
(PID.TID 0000.0001) // =======================================================
(PID.TID 0000.0001) // Begin MONITOR dynamic field statistics
(PID.TID 0000.0001) // =======================================================
(PID.TID 0000.0001) %MON time_tsnumber                =                   105
(PID.TID 0000.0001) %MON time_secondsf                =   4.5360000000000E+06
(PID.TID 0000.0001) %MON dynstat_eta_max              =   8.4853273674560E-01
(PID.TID 0000.0001) %MON dynstat_eta_min              =  -1.3876068149904E+00
(PID.TID 0000.0001) %MON dynstat_eta_mean             =   1.3818308593475E-16
(PID.TID 0000.0001) %MON dynstat_eta_sd               =   4.7369630759312E-01
(PID.TID 0000.0001) %MON dynstat_eta_del2             =   1.9132216559514E-02
(PID.TID 0000.0001) %MON dynstat_uvel_max             =   1.7453506298107E-01
(PID.TID 0000.0001) %MON dynstat_uvel_min             =  -1.4969497681415E-01
(PID.TID 0000.0001) %MON dynstat_uvel_mean            =   8.9296073081442E-04
(PID.TID 0000.0001) %MON dynstat_uvel_sd              =   1.5710509849837E-02
(PID.TID 0000.0001) %MON dynstat_uvel_del2            =   4.7030451723071E-03
(PID.TID 0000.0001) %MON dynstat_vvel_max             =   1.6209584288831E-01
(PID.TID 0000.0001) %MON dynstat_vvel_min             =  -1.4256748951735E-01
(PID.TID 0000.0001) %MON dynstat_vvel_mean            =   1.1634682913227E-03
(PID.TID 0000.0001) %MON dynstat_vvel_sd              =   1.4404385373630E-02
(PID.TID 0000.0001) %MON dynstat_vvel_del2            =   4.1968166507382E-03
(PID.TID 0000.0001) %MON dynstat_wvel_max             =   3.5912683232606E-04
(PID.TID 0000.0001) %MON dynstat_wvel_min             =  -1.9027851433341E-04
(PID.TID 0000.0001) %MON dynstat_wvel_mean            =   4.7135498601525E-22
(PID.TID 0000.0001) %MON dynstat_wvel_sd              =   2.0246078881606E-05
(PID.TID 0000.0001) %MON dynstat_wvel_del2            =   7.7292725788756E-06
(PID.TID 0000.0001) %MON dynstat_theta_max            =   2.9845722870166E+01
(PID.TID 0000.0001) %MON dynstat_theta_min            =  -1.9270545393387E+00
(PID.TID 0000.0001) %MON dynstat_theta_mean           =   3.5885951456766E+00
(PID.TID 0000.0001) %MON dynstat_theta_sd             =   4.3336687781190E+00
(PID.TID 0000.0001) %MON dynstat_theta_del2           =   1.2853771613065E-01
(PID.TID 0000.0001) %MON dynstat_salt_max             =   3.7386625574583E+01
(PID.TID 0000.0001) %MON dynstat_salt_min             =   2.9714525300179E+01
(PID.TID 0000.0001) %MON dynstat_salt_mean            =   3.4716007986716E+01
(PID.TID 0000.0001) %MON dynstat_salt_sd              =   2.9329485660651E-01
(PID.TID 0000.0001) %MON dynstat_salt_del2            =   2.2771993083454E-02
(PID.TID 0000.0001) %MON advcfl_uvel_max              =   2.8845027498645E-02
(PID.TID 0000.0001) %MON advcfl_vvel_max              =   1.5746311284216E-02
(PID.TID 0000.0001) %MON advcfl_wvel_max              =   6.6865260614789E-02
(PID.TID 0000.0001) %MON advcfl_W_hf_max              =   6.8865997321543E-02
(PID.TID 0000.0001) %MON pe_b_mean                    =   2.8713173758706E-04
(PID.TID 0000.0001) %MON ke_max                       =   1.5041760831558E-02
(PID.TID 0000.0001) %MON ke_mean                      =   2.0625379778242E-04
(PID.TID 0000.0001) %MON ke_vol                       =   1.3226782436723E+18
(PID.TID 0000.0001) %MON vort_r_min                   =  -7.9614297694473E-07
(PID.TID 0000.0001) %MON vort_r_max                   =   6.2635353138055E-07
(PID.TID 0000.0001) %MON vort_a_mean                  =  -2.5205768600034E-05
(PID.TID 0000.0001) %MON vort_a_sd                    =   7.3403423875399E-05
(PID.TID 0000.0001) %MON vort_p_mean                  =  -3.1758668557799E-05
(PID.TID 0000.0001) %MON vort_p_sd                    =   1.3126165004215E-04
(PID.TID 0000.0001) %MON surfExpan_theta_mean         =   4.8759447786683E-06
(PID.TID 0000.0001) %MON surfExpan_salt_mean          =  -4.3229081218028E-08
(PID.TID 0000.0001) // =======================================================
(PID.TID 0000.0001) // End MONITOR dynamic field statistics
(PID.TID 0000.0001) // =======================================================
time,SST,SSS,fu,fv,Q,E-P,i0,i1,a,b =   4.5360E+06 -4.4487E-01  3.4461E+01 -1.7626E-02 -1.3371E-02  2.3421E+02  0.0000E+00     2     3  2.5000E-01  7.5000E-01
time,fu0,fu1,fu =   4.5360E+06 -1.4435E-02 -2.7199E-02 -1.7626E-02  2.5000E-01  7.5000E-01
 cg2d: Sum(rhs),rhsMax =   1.76775261095941E-13  7.07130407664696E+00
(PID.TID 0000.0001)                    cg2d_init_res =    3.14225858788431E-01
(PID.TID 0000.0001)                       cg2d_iters =    24
(PID.TID 0000.0001)                         cg2d_res =    6.29456817390980E-14
(PID.TID 0000.0001) // =======================================================
(PID.TID 0000.0001) // Begin MONITOR dynamic field statistics
(PID.TID 0000.0001) // =======================================================
(PID.TID 0000.0001) %MON time_tsnumber                =                   106
(PID.TID 0000.0001) %MON time_secondsf                =   4.5792000000000E+06
(PID.TID 0000.0001) %MON dynstat_eta_max              =   8.4077770240625E-01
(PID.TID 0000.0001) %MON dynstat_eta_min              =  -1.4012122162892E+00
(PID.TID 0000.0001) %MON dynstat_eta_mean             =  -8.7604162581255E-17
(PID.TID 0000.0001) %MON dynstat_eta_sd               =   4.7487313714790E-01
(PID.TID 0000.0001) %MON dynstat_eta_del2             =   1.9114299257538E-02
(PID.TID 0000.0001) %MON dynstat_uvel_max             =   1.8030450608003E-01
(PID.TID 0000.0001) %MON dynstat_uvel_min             =  -1.4865812168431E-01
(PID.TID 0000.0001) %MON dynstat_uvel_mean            =   8.9088035049652E-04
(PID.TID 0000.0001) %MON dynstat_uvel_sd              =   1.5817680865191E-02
(PID.TID 0000.0001) %MON dynstat_uvel_del2            =   4.6914399303458E-03
(PID.TID 0000.0001) %MON dynstat_vvel_max             =   1.6062100352790E-01
(PID.TID 0000.0001) %MON dynstat_vvel_min             =  -1.4129952388071E-01
(PID.TID 0000.0001) %MON dynstat_vvel_mean            =   1.2480502261081E-03
(PID.TID 0000.0001) %MON dynstat_vvel_sd              =   1.4370545453372E-02
(PID.TID 0000.0001) %MON dynstat_vvel_del2            =   4.1894269809706E-03
(PID.TID 0000.0001) %MON dynstat_wvel_max             =   3.5474952258991E-04
(PID.TID 0000.0001) %MON dynstat_wvel_min             =  -1.8884079040200E-04
(PID.TID 0000.0001) %MON dynstat_wvel_mean            =  -3.4326743046466E-22
(PID.TID 0000.0001) %MON dynstat_wvel_sd              =   2.0154842263947E-05
(PID.TID 0000.0001) %MON dynstat_wvel_del2            =   7.6816212336242E-06
(PID.TID 0000.0001) %MON dynstat_theta_max            =   2.9850424700230E+01
(PID.TID 0000.0001) %MON dynstat_theta_min            =  -1.9264550118857E+00
(PID.TID 0000.0001) %MON dynstat_theta_mean           =   3.5885884360620E+00
(PID.TID 0000.0001) %MON dynstat_theta_sd             =   4.3337398654195E+00
(PID.TID 0000.0001) %MON dynstat_theta_del2           =   1.2845448446826E-01
(PID.TID 0000.0001) %MON dynstat_salt_max             =   3.7386193538189E+01
(PID.TID 0000.0001) %MON dynstat_salt_min             =   2.9712947764891E+01
(PID.TID 0000.0001) %MON dynstat_salt_mean            =   3.4716008740047E+01
(PID.TID 0000.0001) %MON dynstat_salt_sd              =   2.9326432933285E-01
(PID.TID 0000.0001) %MON dynstat_salt_del2            =   2.2741767912086E-02
(PID.TID 0000.0001) %MON advcfl_uvel_max              =   2.9798530720284E-02
(PID.TID 0000.0001) %MON advcfl_vvel_max              =   1.5603042467141E-02
(PID.TID 0000.0001) %MON advcfl_wvel_max              =   6.5100457566625E-02
(PID.TID 0000.0001) %MON advcfl_W_hf_max              =   6.8975735092199E-02
(PID.TID 0000.0001) %MON pe_b_mean                    =   2.8856018381952E-04
(PID.TID 0000.0001) %MON ke_max                       =   1.5360201627331E-02
(PID.TID 0000.0001) %MON ke_mean                      =   2.0744161720644E-04
(PID.TID 0000.0001) %MON ke_vol                       =   1.3226782436723E+18
(PID.TID 0000.0001) %MON vort_r_min                   =  -8.0513188358891E-07
(PID.TID 0000.0001) %MON vort_r_max                   =   6.1972092091920E-07
(PID.TID 0000.0001) %MON vort_a_mean                  =  -2.5205768635391E-05
(PID.TID 0000.0001) %MON vort_a_sd                    =   7.3403421097039E-05
(PID.TID 0000.0001) %MON vort_p_mean                  =  -3.1758668602347E-05
(PID.TID 0000.0001) %MON vort_p_sd                    =   1.3126157839669E-04
(PID.TID 0000.0001) %MON surfExpan_theta_mean         =   4.5384499991530E-06
(PID.TID 0000.0001) %MON surfExpan_salt_mean          =  -6.4353762475315E-08
(PID.TID 0000.0001) // =======================================================
(PID.TID 0000.0001) // End MONITOR dynamic field statistics
(PID.TID 0000.0001) // =======================================================
time,SST,SSS,fu,fv,Q,E-P,i0,i1,a,b =   4.5792E+06 -4.3907E-01  3.4463E+01 -1.7838E-02 -1.3087E-02  2.3379E+02  0.0000E+00     2     3  2.6667E-01  7.3333E-01
time,fu0,fu1,fu =   4.5792E+06 -1.4435E-02 -2.7199E-02 -1.7838E-02  2.6667E-01  7.3333E-01
 cg2d: Sum(rhs),rhsMax =   5.49088552403987E-13  6.97474691123031E+00
(PID.TID 0000.0001)                    cg2d_init_res =    3.22463554201180E-01
(PID.TID 0000.0001)                       cg2d_iters =    24
(PID.TID 0000.0001)                         cg2d_res =    6.48013912846087E-14
(PID.TID 0000.0001) // =======================================================
(PID.TID 0000.0001) // Begin MONITOR dynamic field statistics
(PID.TID 0000.0001) // =======================================================
(PID.TID 0000.0001) %MON time_tsnumber                =                   107
(PID.TID 0000.0001) %MON time_secondsf                =   4.6224000000000E+06
(PID.TID 0000.0001) %MON dynstat_eta_max              =   8.2967349408500E-01
(PID.TID 0000.0001) %MON dynstat_eta_min              =  -1.4133364657981E+00
(PID.TID 0000.0001) %MON dynstat_eta_mean             =   2.5889026047408E-16
(PID.TID 0000.0001) %MON dynstat_eta_sd               =   4.7605896995791E-01
(PID.TID 0000.0001) %MON dynstat_eta_del2             =   1.9084195380299E-02
(PID.TID 0000.0001) %MON dynstat_uvel_max             =   1.8557320357330E-01
(PID.TID 0000.0001) %MON dynstat_uvel_min             =  -1.4756498898840E-01
(PID.TID 0000.0001) %MON dynstat_uvel_mean            =   8.9044854927513E-04
(PID.TID 0000.0001) %MON dynstat_uvel_sd              =   1.5925654336425E-02
(PID.TID 0000.0001) %MON dynstat_uvel_del2            =   4.6814551629707E-03
(PID.TID 0000.0001) %MON dynstat_vvel_max             =   1.6070231125260E-01
(PID.TID 0000.0001) %MON dynstat_vvel_min             =  -1.3999584121149E-01
(PID.TID 0000.0001) %MON dynstat_vvel_mean            =   1.3261924875042E-03
(PID.TID 0000.0001) %MON dynstat_vvel_sd              =   1.4343480085046E-02
(PID.TID 0000.0001) %MON dynstat_vvel_del2            =   4.1818911713815E-03
(PID.TID 0000.0001) %MON dynstat_wvel_max             =   3.5014559667868E-04
(PID.TID 0000.0001) %MON dynstat_wvel_min             =  -1.8730268782476E-04
(PID.TID 0000.0001) %MON dynstat_wvel_mean            =   2.9346297113304E-22
(PID.TID 0000.0001) %MON dynstat_wvel_sd              =   2.0069207186807E-05
(PID.TID 0000.0001) %MON dynstat_wvel_del2            =   7.6420305593232E-06
(PID.TID 0000.0001) %MON dynstat_theta_max            =   2.9855224614458E+01
(PID.TID 0000.0001) %MON dynstat_theta_min            =  -1.9260216274224E+00
(PID.TID 0000.0001) %MON dynstat_theta_mean           =   3.5885849770508E+00
(PID.TID 0000.0001) %MON dynstat_theta_sd             =   4.3338227824434E+00
(PID.TID 0000.0001) %MON dynstat_theta_del2           =   1.2834993901780E-01
(PID.TID 0000.0001) %MON dynstat_salt_max             =   3.7385757248214E+01
(PID.TID 0000.0001) %MON dynstat_salt_min             =   2.9711404917083E+01
(PID.TID 0000.0001) %MON dynstat_salt_mean            =   3.4716009846049E+01
(PID.TID 0000.0001) %MON dynstat_salt_sd              =   2.9323324544322E-01
(PID.TID 0000.0001) %MON dynstat_salt_del2            =   2.2709532103223E-02
(PID.TID 0000.0001) %MON advcfl_uvel_max              =   3.0669276812671E-02
(PID.TID 0000.0001) %MON advcfl_vvel_max              =   1.5610940860587E-02
(PID.TID 0000.0001) %MON advcfl_wvel_max              =   6.2887171935026E-02
(PID.TID 0000.0001) %MON advcfl_W_hf_max              =   6.8551449617896E-02
(PID.TID 0000.0001) %MON pe_b_mean                    =   2.9000314342535E-04
(PID.TID 0000.0001) %MON ke_max                       =   1.6394425322662E-02
(PID.TID 0000.0001) %MON ke_mean                      =   2.0873981374880E-04
(PID.TID 0000.0001) %MON ke_vol                       =   1.3226782436723E+18
(PID.TID 0000.0001) %MON vort_r_min                   =  -8.1296524298933E-07
(PID.TID 0000.0001) %MON vort_r_max                   =   6.1315865553820E-07
(PID.TID 0000.0001) %MON vort_a_mean                  =  -2.5205768670597E-05
(PID.TID 0000.0001) %MON vort_a_sd                    =   7.3403418882992E-05
(PID.TID 0000.0001) %MON vort_p_mean                  =  -3.1758668646706E-05
(PID.TID 0000.0001) %MON vort_p_sd                    =   1.3126150888434E-04
(PID.TID 0000.0001) %MON surfExpan_theta_mean         =   4.2024607075265E-06
(PID.TID 0000.0001) %MON surfExpan_salt_mean          =  -9.1614449487263E-08
(PID.TID 0000.0001) // =======================================================
(PID.TID 0000.0001) // End MONITOR dynamic field statistics
(PID.TID 0000.0001) // =======================================================
time,SST,SSS,fu,fv,Q,E-P,i0,i1,a,b =   4.6224E+06 -4.3327E-01  3.4466E+01 -1.8051E-02 -1.2803E-02  2.3337E+02  0.0000E+00     2     3  2.8333E-01  7.1667E-01
time,fu0,fu1,fu =   4.6224E+06 -1.4435E-02 -2.7199E-02 -1.8051E-02  2.8333E-01  7.1667E-01
 cg2d: Sum(rhs),rhsMax =   9.84906600720592E-14  6.85449563145594E+00
(PID.TID 0000.0001)                    cg2d_init_res =    3.32796267663775E-01
(PID.TID 0000.0001)                       cg2d_iters =    24
(PID.TID 0000.0001)                         cg2d_res =    6.62202289651577E-14
(PID.TID 0000.0001) // =======================================================
(PID.TID 0000.0001) // Begin MONITOR dynamic field statistics
(PID.TID 0000.0001) // =======================================================
(PID.TID 0000.0001) %MON time_tsnumber                =                   108
(PID.TID 0000.0001) %MON time_secondsf                =   4.6656000000000E+06
(PID.TID 0000.0001) %MON dynstat_eta_max              =   8.1582330414760E-01
(PID.TID 0000.0001) %MON dynstat_eta_min              =  -1.4240000075503E+00
(PID.TID 0000.0001) %MON dynstat_eta_mean             =   9.3894359744262E-18
(PID.TID 0000.0001) %MON dynstat_eta_sd               =   4.7725379191044E-01
(PID.TID 0000.0001) %MON dynstat_eta_del2             =   1.9039879666810E-02
(PID.TID 0000.0001) %MON dynstat_uvel_max             =   1.9025604025760E-01
(PID.TID 0000.0001) %MON dynstat_uvel_min             =  -1.4641252120716E-01
(PID.TID 0000.0001) %MON dynstat_uvel_mean            =   8.9162438642404E-04
(PID.TID 0000.0001) %MON dynstat_uvel_sd              =   1.6031319638631E-02
(PID.TID 0000.0001) %MON dynstat_uvel_del2            =   4.6725552899578E-03
(PID.TID 0000.0001) %MON dynstat_vvel_max             =   1.6242038977312E-01
(PID.TID 0000.0001) %MON dynstat_vvel_min             =  -1.3866951397592E-01
(PID.TID 0000.0001) %MON dynstat_vvel_mean            =   1.3972567858207E-03
(PID.TID 0000.0001) %MON dynstat_vvel_sd              =   1.4323186793427E-02
(PID.TID 0000.0001) %MON dynstat_vvel_del2            =   4.1758387189238E-03
(PID.TID 0000.0001) %MON dynstat_wvel_max             =   3.4534484878589E-04
(PID.TID 0000.0001) %MON dynstat_wvel_min             =  -1.8567355723169E-04
(PID.TID 0000.0001) %MON dynstat_wvel_mean            =  -5.7783786975342E-23
(PID.TID 0000.0001) %MON dynstat_wvel_sd              =   1.9987437323537E-05
(PID.TID 0000.0001) %MON dynstat_wvel_del2            =   7.6071645948679E-06
(PID.TID 0000.0001) %MON dynstat_theta_max            =   2.9860039230938E+01
(PID.TID 0000.0001) %MON dynstat_theta_min            =  -1.9265663536035E+00
(PID.TID 0000.0001) %MON dynstat_theta_mean           =   3.5885847274314E+00
(PID.TID 0000.0001) %MON dynstat_theta_sd             =   4.3339169289493E+00
(PID.TID 0000.0001) %MON dynstat_theta_del2           =   1.2822644852462E-01
(PID.TID 0000.0001) %MON dynstat_salt_max             =   3.7385316104174E+01
(PID.TID 0000.0001) %MON dynstat_salt_min             =   2.9709897843722E+01
(PID.TID 0000.0001) %MON dynstat_salt_mean            =   3.4716011361684E+01
(PID.TID 0000.0001) %MON dynstat_salt_sd              =   2.9320167375329E-01
(PID.TID 0000.0001) %MON dynstat_salt_del2            =   2.2680086472195E-02
(PID.TID 0000.0001) %MON advcfl_uvel_max              =   3.1443198972628E-02
(PID.TID 0000.0001) %MON advcfl_vvel_max              =   1.5777838411521E-02
(PID.TID 0000.0001) %MON advcfl_wvel_max              =   6.0285964560592E-02
(PID.TID 0000.0001) %MON advcfl_W_hf_max              =   6.8515954828362E-02
(PID.TID 0000.0001) %MON pe_b_mean                    =   2.9146068113728E-04
(PID.TID 0000.0001) %MON ke_max                       =   1.7368062446931E-02
(PID.TID 0000.0001) %MON ke_mean                      =   2.1010059085741E-04
(PID.TID 0000.0001) %MON ke_vol                       =   1.3226782436723E+18
(PID.TID 0000.0001) %MON vort_r_min                   =  -8.1963588402137E-07
(PID.TID 0000.0001) %MON vort_r_max                   =   6.1076346428540E-07
(PID.TID 0000.0001) %MON vort_a_mean                  =  -2.5205768705527E-05
(PID.TID 0000.0001) %MON vort_a_sd                    =   7.3403417205988E-05
(PID.TID 0000.0001) %MON vort_p_mean                  =  -3.1758668690716E-05
(PID.TID 0000.0001) %MON vort_p_sd                    =   1.3126144191572E-04
(PID.TID 0000.0001) %MON surfExpan_theta_mean         =   3.8689967967019E-06
(PID.TID 0000.0001) %MON surfExpan_salt_mean          =  -1.2439910880548E-07
(PID.TID 0000.0001) // =======================================================
(PID.TID 0000.0001) // End MONITOR dynamic field statistics
(PID.TID 0000.0001) // =======================================================
time,SST,SSS,fu,fv,Q,E-P,i0,i1,a,b =   4.6656E+06 -4.2747E-01  3.4469E+01 -1.8264E-02 -1.2518E-02  2.3296E+02  0.0000E+00     2     3  3.0000E-01  7.0000E-01
time,fu0,fu1,fu =   4.6656E+06 -1.4435E-02 -2.7199E-02 -1.8264E-02  3.0000E-01  7.0000E-01
 cg2d: Sum(rhs),rhsMax =  -5.14352449521027E-13  6.77682351164633E+00
(PID.TID 0000.0001)                    cg2d_init_res =    3.41050333567013E-01
(PID.TID 0000.0001)                       cg2d_iters =    24
(PID.TID 0000.0001)                         cg2d_res =    6.64894467243526E-14
(PID.TID 0000.0001) // =======================================================
(PID.TID 0000.0001) // Begin MONITOR dynamic field statistics
(PID.TID 0000.0001) // =======================================================
(PID.TID 0000.0001) %MON time_tsnumber                =                   109
(PID.TID 0000.0001) %MON time_secondsf                =   4.7088000000000E+06
(PID.TID 0000.0001) %MON dynstat_eta_max              =   7.9988099173626E-01
(PID.TID 0000.0001) %MON dynstat_eta_min              =  -1.4332706845019E+00
(PID.TID 0000.0001) %MON dynstat_eta_mean             =   6.0247846721031E-17
(PID.TID 0000.0001) %MON dynstat_eta_sd               =   4.7845747694792E-01
(PID.TID 0000.0001) %MON dynstat_eta_del2             =   1.8987212165609E-02
(PID.TID 0000.0001) %MON dynstat_uvel_max             =   1.9427993040287E-01
(PID.TID 0000.0001) %MON dynstat_uvel_min             =  -1.4519852815946E-01
(PID.TID 0000.0001) %MON dynstat_uvel_mean            =   8.9431674512577E-04
(PID.TID 0000.0001) %MON dynstat_uvel_sd              =   1.6132054077000E-02
(PID.TID 0000.0001) %MON dynstat_uvel_del2            =   4.6640663399981E-03
(PID.TID 0000.0001) %MON dynstat_vvel_max             =   1.6400259584842E-01
(PID.TID 0000.0001) %MON dynstat_vvel_min             =  -1.3733286441515E-01
(PID.TID 0000.0001) %MON dynstat_vvel_mean            =   1.4607410137899E-03
(PID.TID 0000.0001) %MON dynstat_vvel_sd              =   1.4309231441911E-02
(PID.TID 0000.0001) %MON dynstat_vvel_del2            =   4.1711654019010E-03
(PID.TID 0000.0001) %MON dynstat_wvel_max             =   3.4037874977700E-04
(PID.TID 0000.0001) %MON dynstat_wvel_min             =  -1.8396296960408E-04
(PID.TID 0000.0001) %MON dynstat_wvel_mean            =   2.4127361500552E-22
(PID.TID 0000.0001) %MON dynstat_wvel_sd              =   1.9907558398133E-05
(PID.TID 0000.0001) %MON dynstat_wvel_del2            =   7.5712301490680E-06
(PID.TID 0000.0001) %MON dynstat_theta_max            =   2.9864780174931E+01
(PID.TID 0000.0001) %MON dynstat_theta_min            =  -1.9266570871737E+00
(PID.TID 0000.0001) %MON dynstat_theta_mean           =   3.5885876121184E+00
(PID.TID 0000.0001) %MON dynstat_theta_sd             =   4.3340219508934E+00
(PID.TID 0000.0001) %MON dynstat_theta_del2           =   1.2812248597949E-01
(PID.TID 0000.0001) %MON dynstat_salt_max             =   3.7384869689419E+01
(PID.TID 0000.0001) %MON dynstat_salt_min             =   2.9708427512979E+01
(PID.TID 0000.0001) %MON dynstat_salt_mean            =   3.4716013333620E+01
(PID.TID 0000.0001) %MON dynstat_salt_sd              =   2.9316971109810E-01
(PID.TID 0000.0001) %MON dynstat_salt_del2            =   2.2647456698855E-02
(PID.TID 0000.0001) %MON advcfl_uvel_max              =   3.2108218481654E-02
(PID.TID 0000.0001) %MON advcfl_vvel_max              =   1.5931537043969E-02
(PID.TID 0000.0001) %MON advcfl_wvel_max              =   5.7358130735075E-02
(PID.TID 0000.0001) %MON advcfl_W_hf_max              =   6.8899386195948E-02
(PID.TID 0000.0001) %MON pe_b_mean                    =   2.9293272506133E-04
(PID.TID 0000.0001) %MON ke_max                       =   1.8264078433339E-02
(PID.TID 0000.0001) %MON ke_mean                      =   2.1147680639081E-04
(PID.TID 0000.0001) %MON ke_vol                       =   1.3226782436723E+18
(PID.TID 0000.0001) %MON vort_r_min                   =  -8.2515206115484E-07
(PID.TID 0000.0001) %MON vort_r_max                   =   6.1861981600474E-07
(PID.TID 0000.0001) %MON vort_a_mean                  =  -2.5205768740321E-05
(PID.TID 0000.0001) %MON vort_a_sd                    =   7.3403416021026E-05
(PID.TID 0000.0001) %MON vort_p_mean                  =  -3.1758668734557E-05
(PID.TID 0000.0001) %MON vort_p_sd                    =   1.3126137783615E-04
(PID.TID 0000.0001) %MON surfExpan_theta_mean         =   3.5409074246296E-06
(PID.TID 0000.0001) %MON surfExpan_salt_mean          =  -1.6185686784049E-07
(PID.TID 0000.0001) // =======================================================
(PID.TID 0000.0001) // End MONITOR dynamic field statistics
(PID.TID 0000.0001) // =======================================================
time,SST,SSS,fu,fv,Q,E-P,i0,i1,a,b =   4.7088E+06 -4.2167E-01  3.4471E+01 -1.8477E-02 -1.2234E-02  2.3254E+02  0.0000E+00     2     3  3.1667E-01  6.8333E-01
time,fu0,fu1,fu =   4.7088E+06 -1.4435E-02 -2.7199E-02 -1.8477E-02  3.1667E-01  6.8333E-01
 cg2d: Sum(rhs),rhsMax =   3.14429038361652E-13  6.84684500981333E+00
(PID.TID 0000.0001)                    cg2d_init_res =    3.40802680594566E-01
(PID.TID 0000.0001)                       cg2d_iters =    24
(PID.TID 0000.0001)                         cg2d_res =    6.42778706391039E-14
(PID.TID 0000.0001) // =======================================================
(PID.TID 0000.0001) // Begin MONITOR dynamic field statistics
(PID.TID 0000.0001) // =======================================================
(PID.TID 0000.0001) %MON time_tsnumber                =                   110
(PID.TID 0000.0001) %MON time_secondsf                =   4.7520000000000E+06
(PID.TID 0000.0001) %MON dynstat_eta_max              =   7.8252620029047E-01
(PID.TID 0000.0001) %MON dynstat_eta_min              =  -1.4412549449959E+00
(PID.TID 0000.0001) %MON dynstat_eta_mean             =   2.1959280601400E-16
(PID.TID 0000.0001) %MON dynstat_eta_sd               =   4.7966917543292E-01
(PID.TID 0000.0001) %MON dynstat_eta_del2             =   1.8946832056764E-02
(PID.TID 0000.0001) %MON dynstat_uvel_max             =   1.9758504176457E-01
(PID.TID 0000.0001) %MON dynstat_uvel_min             =  -1.4392204395270E-01
(PID.TID 0000.0001) %MON dynstat_uvel_mean            =   8.9838607427309E-04
(PID.TID 0000.0001) %MON dynstat_uvel_sd              =   1.6225802574861E-02
(PID.TID 0000.0001) %MON dynstat_uvel_del2            =   4.6554660227493E-03
(PID.TID 0000.0001) %MON dynstat_vvel_max             =   1.6544439739642E-01
(PID.TID 0000.0001) %MON dynstat_vvel_min             =  -1.3847259328123E-01
(PID.TID 0000.0001) %MON dynstat_vvel_mean            =   1.5162934962628E-03
(PID.TID 0000.0001) %MON dynstat_vvel_sd              =   1.4300775312586E-02
(PID.TID 0000.0001) %MON dynstat_vvel_del2            =   4.1657967082757E-03
(PID.TID 0000.0001) %MON dynstat_wvel_max             =   3.3527967169736E-04
(PID.TID 0000.0001) %MON dynstat_wvel_min             =  -1.8218024053223E-04
(PID.TID 0000.0001) %MON dynstat_wvel_mean            =   6.3602608798962E-23
(PID.TID 0000.0001) %MON dynstat_wvel_sd              =   1.9827603462331E-05
(PID.TID 0000.0001) %MON dynstat_wvel_del2            =   7.5351413470217E-06
(PID.TID 0000.0001) %MON dynstat_theta_max            =   2.9869356251368E+01
(PID.TID 0000.0001) %MON dynstat_theta_min            =  -1.9268479927248E+00
(PID.TID 0000.0001) %MON dynstat_theta_mean           =   3.5885935382520E+00
(PID.TID 0000.0001) %MON dynstat_theta_sd             =   4.3341368931039E+00
(PID.TID 0000.0001) %MON dynstat_theta_del2           =   1.2801037461357E-01
(PID.TID 0000.0001) %MON dynstat_salt_max             =   3.7384418234426E+01
(PID.TID 0000.0001) %MON dynstat_salt_min             =   2.9706994768165E+01
(PID.TID 0000.0001) %MON dynstat_salt_mean            =   3.4716015798427E+01
(PID.TID 0000.0001) %MON dynstat_salt_sd              =   2.9313752493775E-01
(PID.TID 0000.0001) %MON dynstat_salt_del2            =   2.2615761019809E-02
(PID.TID 0000.0001) %MON advcfl_uvel_max              =   3.2654446995777E-02
(PID.TID 0000.0001) %MON advcfl_vvel_max              =   1.6071596502499E-02
(PID.TID 0000.0001) %MON advcfl_wvel_max              =   5.4164176102223E-02
(PID.TID 0000.0001) %MON advcfl_W_hf_max              =   6.8778600701238E-02
(PID.TID 0000.0001) %MON pe_b_mean                    =   2.9441831409970E-04
(PID.TID 0000.0001) %MON ke_max                       =   1.9066919266442E-02
(PID.TID 0000.0001) %MON ke_mean                      =   2.1282391995164E-04
(PID.TID 0000.0001) %MON ke_vol                       =   1.3226782436723E+18
(PID.TID 0000.0001) %MON vort_r_min                   =  -8.2953612095001E-07
(PID.TID 0000.0001) %MON vort_r_max                   =   6.2469677497106E-07
(PID.TID 0000.0001) %MON vort_a_mean                  =  -2.5205768774873E-05
(PID.TID 0000.0001) %MON vort_a_sd                    =   7.3403415272133E-05
(PID.TID 0000.0001) %MON vort_p_mean                  =  -3.1758668778091E-05
(PID.TID 0000.0001) %MON vort_p_sd                    =   1.3126131694710E-04
(PID.TID 0000.0001) %MON surfExpan_theta_mean         =   3.2214065812182E-06
(PID.TID 0000.0001) %MON surfExpan_salt_mean          =  -2.0312372676217E-07
(PID.TID 0000.0001) // =======================================================
(PID.TID 0000.0001) // End MONITOR dynamic field statistics
(PID.TID 0000.0001) // =======================================================
time,SST,SSS,fu,fv,Q,E-P,i0,i1,a,b =   4.7520E+06 -4.1587E-01  3.4474E+01 -1.8689E-02 -1.1950E-02  2.3212E+02  0.0000E+00     2     3  3.3333E-01  6.6667E-01
time,fu0,fu1,fu =   4.7520E+06 -1.4435E-02 -2.7199E-02 -1.8689E-02  3.3333E-01  6.6667E-01
 cg2d: Sum(rhs),rhsMax =   2.02449168540397E-13  6.91737137041791E+00
(PID.TID 0000.0001)                    cg2d_init_res =    3.38750078205413E-01
(PID.TID 0000.0001)                       cg2d_iters =    24
(PID.TID 0000.0001)                         cg2d_res =    6.11523233802326E-14
(PID.TID 0000.0001) // =======================================================
(PID.TID 0000.0001) // Begin MONITOR dynamic field statistics
(PID.TID 0000.0001) // =======================================================
(PID.TID 0000.0001) %MON time_tsnumber                =                   111
(PID.TID 0000.0001) %MON time_secondsf                =   4.7952000000000E+06
(PID.TID 0000.0001) %MON dynstat_eta_max              =   7.8611055551314E-01
(PID.TID 0000.0001) %MON dynstat_eta_min              =  -1.4480886258907E+00
(PID.TID 0000.0001) %MON dynstat_eta_mean             =   1.9018468303261E-16
(PID.TID 0000.0001) %MON dynstat_eta_sd               =   4.8088687934981E-01
(PID.TID 0000.0001) %MON dynstat_eta_del2             =   1.8916161151354E-02
(PID.TID 0000.0001) %MON dynstat_uvel_max             =   2.0012571442211E-01
(PID.TID 0000.0001) %MON dynstat_uvel_min             =  -1.4258359865968E-01
(PID.TID 0000.0001) %MON dynstat_uvel_mean            =   9.0364664295087E-04
(PID.TID 0000.0001) %MON dynstat_uvel_sd              =   1.6311129313701E-02
(PID.TID 0000.0001) %MON dynstat_uvel_del2            =   4.6457049219623E-03
(PID.TID 0000.0001) %MON dynstat_vvel_max             =   1.6674204747235E-01
(PID.TID 0000.0001) %MON dynstat_vvel_min             =  -1.3988710537111E-01
(PID.TID 0000.0001) %MON dynstat_vvel_mean            =   1.5637179043795E-03
(PID.TID 0000.0001) %MON dynstat_vvel_sd              =   1.4296619061334E-02
(PID.TID 0000.0001) %MON dynstat_vvel_del2            =   4.1604891252892E-03
(PID.TID 0000.0001) %MON dynstat_wvel_max             =   3.3008014654087E-04
(PID.TID 0000.0001) %MON dynstat_wvel_min             =  -1.8033435422576E-04
(PID.TID 0000.0001) %MON dynstat_wvel_mean            =  -4.6633001355654E-22
(PID.TID 0000.0001) %MON dynstat_wvel_sd              =   1.9745818113698E-05
(PID.TID 0000.0001) %MON dynstat_wvel_del2            =   7.4990300661363E-06
(PID.TID 0000.0001) %MON dynstat_theta_max            =   2.9873675801601E+01
(PID.TID 0000.0001) %MON dynstat_theta_min            =  -1.9269929404666E+00
(PID.TID 0000.0001) %MON dynstat_theta_mean           =   3.5886023310473E+00
(PID.TID 0000.0001) %MON dynstat_theta_sd             =   4.3342606672285E+00
(PID.TID 0000.0001) %MON dynstat_theta_del2           =   1.2789403309987E-01
(PID.TID 0000.0001) %MON dynstat_salt_max             =   3.7383962222998E+01
(PID.TID 0000.0001) %MON dynstat_salt_min             =   2.9705600302739E+01
(PID.TID 0000.0001) %MON dynstat_salt_mean            =   3.4716018779001E+01
(PID.TID 0000.0001) %MON dynstat_salt_sd              =   2.9310508800676E-01
(PID.TID 0000.0001) %MON dynstat_salt_del2            =   2.2584160667758E-02
(PID.TID 0000.0001) %MON advcfl_uvel_max              =   3.3074338399945E-02
(PID.TID 0000.0001) %MON advcfl_vvel_max              =   1.6197652801474E-02
(PID.TID 0000.0001) %MON advcfl_wvel_max              =   5.0762410631534E-02
(PID.TID 0000.0001) %MON advcfl_W_hf_max              =   6.8159793414092E-02
(PID.TID 0000.0001) %MON pe_b_mean                    =   2.9591505152124E-04
(PID.TID 0000.0001) %MON ke_max                       =   1.9762897723741E-02
(PID.TID 0000.0001) %MON ke_mean                      =   2.1410174398637E-04
(PID.TID 0000.0001) %MON ke_vol                       =   1.3226782436723E+18
(PID.TID 0000.0001) %MON vort_r_min                   =  -8.3282302430285E-07
(PID.TID 0000.0001) %MON vort_r_max                   =   6.2894041632409E-07
(PID.TID 0000.0001) %MON vort_a_mean                  =  -2.5205768809052E-05
(PID.TID 0000.0001) %MON vort_a_sd                    =   7.3403414891615E-05
(PID.TID 0000.0001) %MON vort_p_mean                  =  -3.1758668821156E-05
(PID.TID 0000.0001) %MON vort_p_sd                    =   1.3126125948055E-04
(PID.TID 0000.0001) %MON surfExpan_theta_mean         =   2.9151128362613E-06
(PID.TID 0000.0001) %MON surfExpan_salt_mean          =  -2.4716206591361E-07
(PID.TID 0000.0001) // =======================================================
(PID.TID 0000.0001) // End MONITOR dynamic field statistics
(PID.TID 0000.0001) // =======================================================
time,SST,SSS,fu,fv,Q,E-P,i0,i1,a,b =   4.7952E+06 -4.1007E-01  3.4476E+01 -1.8902E-02 -1.1665E-02  2.3170E+02  0.0000E+00     2     3  3.5000E-01  6.5000E-01
time,fu0,fu1,fu =   4.7952E+06 -1.4435E-02 -2.7199E-02 -1.8902E-02  3.5000E-01  6.5000E-01
 cg2d: Sum(rhs),rhsMax =   4.36595204433843E-13  6.98488811989219E+00
(PID.TID 0000.0001)                    cg2d_init_res =    3.34729996017250E-01
(PID.TID 0000.0001)                       cg2d_iters =    24
(PID.TID 0000.0001)                         cg2d_res =    5.75069343645299E-14
(PID.TID 0000.0001) // =======================================================
(PID.TID 0000.0001) // Begin MONITOR dynamic field statistics
(PID.TID 0000.0001) // =======================================================
(PID.TID 0000.0001) %MON time_tsnumber                =                   112
(PID.TID 0000.0001) %MON time_secondsf                =   4.8384000000000E+06
(PID.TID 0000.0001) %MON dynstat_eta_max              =   7.9417107639474E-01
(PID.TID 0000.0001) %MON dynstat_eta_min              =  -1.4539277154985E+00
(PID.TID 0000.0001) %MON dynstat_eta_mean             =  -1.1988255199532E-16
(PID.TID 0000.0001) %MON dynstat_eta_sd               =   4.8210720401464E-01
(PID.TID 0000.0001) %MON dynstat_eta_del2             =   1.8891894031192E-02
(PID.TID 0000.0001) %MON dynstat_uvel_max             =   2.0187102060530E-01
(PID.TID 0000.0001) %MON dynstat_uvel_min             =  -1.4130237732870E-01
(PID.TID 0000.0001) %MON dynstat_uvel_mean            =   9.0987081619362E-04
(PID.TID 0000.0001) %MON dynstat_uvel_sd              =   1.6387213251049E-02
(PID.TID 0000.0001) %MON dynstat_uvel_del2            =   4.6347349817738E-03
(PID.TID 0000.0001) %MON dynstat_vvel_max             =   1.6789263284453E-01
(PID.TID 0000.0001) %MON dynstat_vvel_min             =  -1.4110975716593E-01
(PID.TID 0000.0001) %MON dynstat_vvel_mean            =   1.6029742384576E-03
(PID.TID 0000.0001) %MON dynstat_vvel_sd              =   1.4295278310754E-02
(PID.TID 0000.0001) %MON dynstat_vvel_del2            =   4.1558253238304E-03
(PID.TID 0000.0001) %MON dynstat_wvel_max             =   3.2481213585805E-04
(PID.TID 0000.0001) %MON dynstat_wvel_min             =  -1.7843363357520E-04
(PID.TID 0000.0001) %MON dynstat_wvel_mean            =  -1.8845247432880E-22
(PID.TID 0000.0001) %MON dynstat_wvel_sd              =   1.9660753968969E-05
(PID.TID 0000.0001) %MON dynstat_wvel_del2            =   7.4599605376271E-06
(PID.TID 0000.0001) %MON dynstat_theta_max            =   2.9877649789889E+01
(PID.TID 0000.0001) %MON dynstat_theta_min            =  -1.9270847289080E+00
(PID.TID 0000.0001) %MON dynstat_theta_mean           =   3.5886137639577E+00
(PID.TID 0000.0001) %MON dynstat_theta_sd             =   4.3343920593737E+00
(PID.TID 0000.0001) %MON dynstat_theta_del2           =   1.2776521118888E-01
(PID.TID 0000.0001) %MON dynstat_salt_max             =   3.7383502537048E+01
(PID.TID 0000.0001) %MON dynstat_salt_min             =   2.9704244680190E+01
(PID.TID 0000.0001) %MON dynstat_salt_mean            =   3.4716022285936E+01
(PID.TID 0000.0001) %MON dynstat_salt_sd              =   2.9307244755889E-01
(PID.TID 0000.0001) %MON dynstat_salt_del2            =   2.2554124503016E-02
(PID.TID 0000.0001) %MON advcfl_uvel_max              =   3.3362781329336E-02
(PID.TID 0000.0001) %MON advcfl_vvel_max              =   1.6309422943795E-02
(PID.TID 0000.0001) %MON advcfl_wvel_max              =   5.5650252192984E-02
(PID.TID 0000.0001) %MON advcfl_W_hf_max              =   6.7058881578468E-02
(PID.TID 0000.0001) %MON pe_b_mean                    =   2.9741881733751E-04
(PID.TID 0000.0001) %MON ke_max                       =   2.0340532700384E-02
(PID.TID 0000.0001) %MON ke_mean                      =   2.1527572513850E-04
(PID.TID 0000.0001) %MON ke_vol                       =   1.3226782436723E+18
(PID.TID 0000.0001) %MON vort_r_min                   =  -8.3505878405821E-07
(PID.TID 0000.0001) %MON vort_r_max                   =   6.3131797788571E-07
(PID.TID 0000.0001) %MON vort_a_mean                  =  -2.5205768842754E-05
(PID.TID 0000.0001) %MON vort_a_sd                    =   7.3403414801482E-05
(PID.TID 0000.0001) %MON vort_p_mean                  =  -3.1758668863620E-05
(PID.TID 0000.0001) %MON vort_p_sd                    =   1.3126120561126E-04
(PID.TID 0000.0001) %MON surfExpan_theta_mean         =   2.6273162024429E-06
(PID.TID 0000.0001) %MON surfExpan_salt_mean          =  -2.9286736607989E-07
(PID.TID 0000.0001) // =======================================================
(PID.TID 0000.0001) // End MONITOR dynamic field statistics
(PID.TID 0000.0001) // =======================================================
time,SST,SSS,fu,fv,Q,E-P,i0,i1,a,b =   4.8384E+06 -4.0427E-01  3.4479E+01 -1.9115E-02 -1.1381E-02  2.3128E+02  0.0000E+00     2     3  3.6667E-01  6.3333E-01
time,fu0,fu1,fu =   4.8384E+06 -1.4435E-02 -2.7199E-02 -1.9115E-02  3.6667E-01  6.3333E-01
 cg2d: Sum(rhs),rhsMax =   3.37396777183585E-13  7.04590467796849E+00
(PID.TID 0000.0001)                    cg2d_init_res =    3.28825645020235E-01
(PID.TID 0000.0001)                       cg2d_iters =    24
(PID.TID 0000.0001)                         cg2d_res =    5.39216632351548E-14
(PID.TID 0000.0001) // =======================================================
(PID.TID 0000.0001) // Begin MONITOR dynamic field statistics
(PID.TID 0000.0001) // =======================================================
(PID.TID 0000.0001) %MON time_tsnumber                =                   113
(PID.TID 0000.0001) %MON time_secondsf                =   4.8816000000000E+06
(PID.TID 0000.0001) %MON dynstat_eta_max              =   8.0147593237436E-01
(PID.TID 0000.0001) %MON dynstat_eta_min              =  -1.4589394027421E+00
(PID.TID 0000.0001) %MON dynstat_eta_mean             =   1.4437120974156E-16
(PID.TID 0000.0001) %MON dynstat_eta_sd               =   4.8332543017623E-01
(PID.TID 0000.0001) %MON dynstat_eta_del2             =   1.8875820198946E-02
(PID.TID 0000.0001) %MON dynstat_uvel_max             =   2.0280503431342E-01
(PID.TID 0000.0001) %MON dynstat_uvel_min             =  -1.4034998189865E-01
(PID.TID 0000.0001) %MON dynstat_uvel_mean            =   9.1679280130810E-04
(PID.TID 0000.0001) %MON dynstat_uvel_sd              =   1.6453804247272E-02
(PID.TID 0000.0001) %MON dynstat_uvel_del2            =   4.6224540683882E-03
(PID.TID 0000.0001) %MON dynstat_vvel_max             =   1.6889408603599E-01
(PID.TID 0000.0001) %MON dynstat_vvel_min             =  -1.4214174782224E-01
(PID.TID 0000.0001) %MON dynstat_vvel_mean            =   1.6341723390379E-03
(PID.TID 0000.0001) %MON dynstat_vvel_sd              =   1.4295076168807E-02
(PID.TID 0000.0001) %MON dynstat_vvel_del2            =   4.1506750634569E-03
(PID.TID 0000.0001) %MON dynstat_wvel_max             =   3.1950738438187E-04
(PID.TID 0000.0001) %MON dynstat_wvel_min             =  -1.7717648100154E-04
(PID.TID 0000.0001) %MON dynstat_wvel_mean            =  -3.9954703464471E-22
(PID.TID 0000.0001) %MON dynstat_wvel_sd              =   1.9571377050631E-05
(PID.TID 0000.0001) %MON dynstat_wvel_del2            =   7.4213998560509E-06
(PID.TID 0000.0001) %MON dynstat_theta_max            =   2.9881193956257E+01
(PID.TID 0000.0001) %MON dynstat_theta_min            =  -1.9271187614667E+00
(PID.TID 0000.0001) %MON dynstat_theta_mean           =   3.5886275324472E+00
(PID.TID 0000.0001) %MON dynstat_theta_sd             =   4.3345295096249E+00
(PID.TID 0000.0001) %MON dynstat_theta_del2           =   1.2763235513978E-01
(PID.TID 0000.0001) %MON dynstat_salt_max             =   3.7383040171242E+01
(PID.TID 0000.0001) %MON dynstat_salt_min             =   2.9702928292537E+01
(PID.TID 0000.0001) %MON dynstat_salt_mean            =   3.4716026315895E+01
(PID.TID 0000.0001) %MON dynstat_salt_sd              =   2.9303971299481E-01
(PID.TID 0000.0001) %MON dynstat_salt_del2            =   2.2523919375507E-02
(PID.TID 0000.0001) %MON advcfl_uvel_max              =   3.3517143728700E-02
(PID.TID 0000.0001) %MON advcfl_vvel_max              =   1.6406706090657E-02
(PID.TID 0000.0001) %MON advcfl_wvel_max              =   6.0681801560758E-02
(PID.TID 0000.0001) %MON advcfl_W_hf_max              =   6.8138515867875E-02
(PID.TID 0000.0001) %MON pe_b_mean                    =   2.9892379861442E-04
(PID.TID 0000.0001) %MON ke_max                       =   2.0790833829565E-02
(PID.TID 0000.0001) %MON ke_mean                      =   2.1631776414523E-04
(PID.TID 0000.0001) %MON ke_vol                       =   1.3226782436723E+18
(PID.TID 0000.0001) %MON vort_r_min                   =  -8.3629887445055E-07
(PID.TID 0000.0001) %MON vort_r_max                   =   6.3181976382705E-07
(PID.TID 0000.0001) %MON vort_a_mean                  =  -2.5205768875860E-05
(PID.TID 0000.0001) %MON vort_a_sd                    =   7.3403414915824E-05
(PID.TID 0000.0001) %MON vort_p_mean                  =  -3.1758668905332E-05
(PID.TID 0000.0001) %MON vort_p_sd                    =   1.3126115543757E-04
(PID.TID 0000.0001) %MON surfExpan_theta_mean         =   2.3637349720430E-06
(PID.TID 0000.0001) %MON surfExpan_salt_mean          =  -3.3909385848668E-07
(PID.TID 0000.0001) // =======================================================
(PID.TID 0000.0001) // End MONITOR dynamic field statistics
(PID.TID 0000.0001) // =======================================================
time,SST,SSS,fu,fv,Q,E-P,i0,i1,a,b =   4.8816E+06 -3.9848E-01  3.4482E+01 -1.9328E-02 -1.1097E-02  2.3087E+02  0.0000E+00     2     3  3.8333E-01  6.1667E-01
time,fu0,fu1,fu =   4.8816E+06 -1.4435E-02 -2.7199E-02 -1.9328E-02  3.8333E-01  6.1667E-01
 cg2d: Sum(rhs),rhsMax =  -3.46236928017163E-13  7.09712828671224E+00
(PID.TID 0000.0001)                    cg2d_init_res =    3.21323058864746E-01
(PID.TID 0000.0001)                       cg2d_iters =    24
(PID.TID 0000.0001)                         cg2d_res =    5.09999857974558E-14
(PID.TID 0000.0001) // =======================================================
(PID.TID 0000.0001) // Begin MONITOR dynamic field statistics
(PID.TID 0000.0001) // =======================================================
(PID.TID 0000.0001) %MON time_tsnumber                =                   114
(PID.TID 0000.0001) %MON time_secondsf                =   4.9248000000000E+06
(PID.TID 0000.0001) %MON dynstat_eta_max              =   8.0765445986381E-01
(PID.TID 0000.0001) %MON dynstat_eta_min              =  -1.4632938079321E+00
(PID.TID 0000.0001) %MON dynstat_eta_mean             =  -3.3163877333747E-16
(PID.TID 0000.0001) %MON dynstat_eta_sd               =   4.8453578042214E-01
(PID.TID 0000.0001) %MON dynstat_eta_del2             =   1.8853571644045E-02
(PID.TID 0000.0001) %MON dynstat_uvel_max             =   2.0292685273220E-01
(PID.TID 0000.0001) %MON dynstat_uvel_min             =  -1.3927723674896E-01
(PID.TID 0000.0001) %MON dynstat_uvel_mean            =   9.2411313058465E-04
(PID.TID 0000.0001) %MON dynstat_uvel_sd              =   1.6511140625554E-02
(PID.TID 0000.0001) %MON dynstat_uvel_del2            =   4.6081243575813E-03
(PID.TID 0000.0001) %MON dynstat_vvel_max             =   1.6974516743317E-01
(PID.TID 0000.0001) %MON dynstat_vvel_min             =  -1.4298634051795E-01
(PID.TID 0000.0001) %MON dynstat_vvel_mean            =   1.6575619761072E-03
(PID.TID 0000.0001) %MON dynstat_vvel_sd              =   1.4294249163110E-02
(PID.TID 0000.0001) %MON dynstat_vvel_del2            =   4.1445248312498E-03
(PID.TID 0000.0001) %MON dynstat_wvel_max             =   3.1419722308528E-04
(PID.TID 0000.0001) %MON dynstat_wvel_min             =  -1.7744013367491E-04
(PID.TID 0000.0001) %MON dynstat_wvel_mean            =  -1.5318979451196E-22
(PID.TID 0000.0001) %MON dynstat_wvel_sd              =   1.9477111991628E-05
(PID.TID 0000.0001) %MON dynstat_wvel_del2            =   7.3809979588564E-06
(PID.TID 0000.0001) %MON dynstat_theta_max            =   2.9884283843595E+01
(PID.TID 0000.0001) %MON dynstat_theta_min            =  -1.9290501142662E+00
(PID.TID 0000.0001) %MON dynstat_theta_mean           =   3.5886432741863E+00
(PID.TID 0000.0001) %MON dynstat_theta_sd             =   4.3346714206371E+00
(PID.TID 0000.0001) %MON dynstat_theta_del2           =   1.2749374019142E-01
(PID.TID 0000.0001) %MON dynstat_salt_max             =   3.7382576471582E+01
(PID.TID 0000.0001) %MON dynstat_salt_min             =   2.9701651335461E+01
(PID.TID 0000.0001) %MON dynstat_salt_mean            =   3.4716030852747E+01
(PID.TID 0000.0001) %MON dynstat_salt_sd              =   2.9300696511725E-01
(PID.TID 0000.0001) %MON dynstat_salt_del2            =   2.2493645588545E-02
(PID.TID 0000.0001) %MON advcfl_uvel_max              =   3.3537276391900E-02
(PID.TID 0000.0001) %MON advcfl_vvel_max              =   1.6489381823540E-02
(PID.TID 0000.0001) %MON advcfl_wvel_max              =   6.4270269939487E-02
(PID.TID 0000.0001) %MON advcfl_W_hf_max              =   7.2174794559737E-02
(PID.TID 0000.0001) %MON pe_b_mean                    =   3.0042281143664E-04
(PID.TID 0000.0001) %MON ke_max                       =   2.1107519206033E-02
(PID.TID 0000.0001) %MON ke_mean                      =   2.1720653392523E-04
(PID.TID 0000.0001) %MON ke_vol                       =   1.3226782436723E+18
(PID.TID 0000.0001) %MON vort_r_min                   =  -8.3660663877314E-07
(PID.TID 0000.0001) %MON vort_r_max                   =   6.3046071395972E-07
(PID.TID 0000.0001) %MON vort_a_mean                  =  -2.5205768908115E-05
(PID.TID 0000.0001) %MON vort_a_sd                    =   7.3403415144075E-05
(PID.TID 0000.0001) %MON vort_p_mean                  =  -3.1758668945973E-05
(PID.TID 0000.0001) %MON vort_p_sd                    =   1.3126110896851E-04
(PID.TID 0000.0001) %MON surfExpan_theta_mean         =   2.1307625777760E-06
(PID.TID 0000.0001) %MON surfExpan_salt_mean          =  -3.8463988653006E-07
(PID.TID 0000.0001) // =======================================================
(PID.TID 0000.0001) // End MONITOR dynamic field statistics
(PID.TID 0000.0001) // =======================================================
time,SST,SSS,fu,fv,Q,E-P,i0,i1,a,b =   4.9248E+06 -3.9268E-01  3.4484E+01 -1.9540E-02 -1.0813E-02  2.3045E+02  0.0000E+00     2     3  4.0000E-01  6.0000E-01
time,fu0,fu1,fu =   4.9248E+06 -1.4435E-02 -2.7199E-02 -1.9540E-02  4.0000E-01  6.0000E-01
 cg2d: Sum(rhs),rhsMax =  -6.34978181146550E-13  7.13562334281976E+00
(PID.TID 0000.0001)                    cg2d_init_res =    3.12662108724955E-01
(PID.TID 0000.0001)                       cg2d_iters =    24
(PID.TID 0000.0001)                         cg2d_res =    4.92032706662677E-14
(PID.TID 0000.0001) // =======================================================
(PID.TID 0000.0001) // Begin MONITOR dynamic field statistics
(PID.TID 0000.0001) // =======================================================
(PID.TID 0000.0001) %MON time_tsnumber                =                   115
(PID.TID 0000.0001) %MON time_secondsf                =   4.9680000000000E+06
(PID.TID 0000.0001) %MON dynstat_eta_max              =   8.1237652524322E-01
(PID.TID 0000.0001) %MON dynstat_eta_min              =  -1.4671566423103E+00
(PID.TID 0000.0001) %MON dynstat_eta_mean             =  -8.1875109772854E-17
(PID.TID 0000.0001) %MON dynstat_eta_sd               =   4.8573192853973E-01
(PID.TID 0000.0001) %MON dynstat_eta_del2             =   1.8843604695628E-02
(PID.TID 0000.0001) %MON dynstat_uvel_max             =   2.0225032325269E-01
(PID.TID 0000.0001) %MON dynstat_uvel_min             =  -1.3809159860985E-01
(PID.TID 0000.0001) %MON dynstat_uvel_mean            =   9.3150961551092E-04
(PID.TID 0000.0001) %MON dynstat_uvel_sd              =   1.6559845148275E-02
(PID.TID 0000.0001) %MON dynstat_uvel_del2            =   4.5921799029786E-03
(PID.TID 0000.0001) %MON dynstat_vvel_max             =   1.7044542380200E-01
(PID.TID 0000.0001) %MON dynstat_vvel_min             =  -1.4364868518254E-01
(PID.TID 0000.0001) %MON dynstat_vvel_mean            =   1.6735187593052E-03
(PID.TID 0000.0001) %MON dynstat_vvel_sd              =   1.4291050359420E-02
(PID.TID 0000.0001) %MON dynstat_vvel_del2            =   4.1380706165396E-03
(PID.TID 0000.0001) %MON dynstat_wvel_max             =   3.0890763360064E-04
(PID.TID 0000.0001) %MON dynstat_wvel_min             =  -1.7712860346862E-04
(PID.TID 0000.0001) %MON dynstat_wvel_mean            =   4.5556983600579E-22
(PID.TID 0000.0001) %MON dynstat_wvel_sd              =   1.9377840354921E-05
(PID.TID 0000.0001) %MON dynstat_wvel_del2            =   7.3398814822905E-06
(PID.TID 0000.0001) %MON dynstat_theta_max            =   2.9886901868774E+01
(PID.TID 0000.0001) %MON dynstat_theta_min            =  -1.9280857104983E+00
(PID.TID 0000.0001) %MON dynstat_theta_mean           =   3.5886605695792E+00
(PID.TID 0000.0001) %MON dynstat_theta_sd             =   4.3348159186079E+00
(PID.TID 0000.0001) %MON dynstat_theta_del2           =   1.2735360717584E-01
(PID.TID 0000.0001) %MON dynstat_salt_max             =   3.7382112979415E+01
(PID.TID 0000.0001) %MON dynstat_salt_min             =   2.9700413782392E+01
(PID.TID 0000.0001) %MON dynstat_salt_mean            =   3.4716035866262E+01
(PID.TID 0000.0001) %MON dynstat_salt_sd              =   2.9297425984583E-01
(PID.TID 0000.0001) %MON dynstat_salt_del2            =   2.2463960813005E-02
(PID.TID 0000.0001) %MON advcfl_uvel_max              =   3.3425467846918E-02
(PID.TID 0000.0001) %MON advcfl_vvel_max              =   1.6557406114391E-02
(PID.TID 0000.0001) %MON advcfl_wvel_max              =   6.6544571202452E-02
(PID.TID 0000.0001) %MON advcfl_W_hf_max              =   7.4729538024015E-02
(PID.TID 0000.0001) %MON pe_b_mean                    =   3.0190791841701E-04
(PID.TID 0000.0001) %MON ke_max                       =   2.1287150203903E-02
(PID.TID 0000.0001) %MON ke_mean                      =   2.1792734980231E-04
(PID.TID 0000.0001) %MON ke_vol                       =   1.3226782436723E+18
(PID.TID 0000.0001) %MON vort_r_min                   =  -8.3605170020783E-07
(PID.TID 0000.0001) %MON vort_r_max                   =   6.2728136685340E-07
(PID.TID 0000.0001) %MON vort_a_mean                  =  -2.5205768939521E-05
(PID.TID 0000.0001) %MON vort_a_sd                    =   7.3403415389587E-05
(PID.TID 0000.0001) %MON vort_p_mean                  =  -3.1758668985544E-05
(PID.TID 0000.0001) %MON vort_p_sd                    =   1.3126106622432E-04
(PID.TID 0000.0001) %MON surfExpan_theta_mean         =   1.9342408419052E-06
(PID.TID 0000.0001) %MON surfExpan_salt_mean          =  -4.2835842206371E-07
(PID.TID 0000.0001) // =======================================================
(PID.TID 0000.0001) // End MONITOR dynamic field statistics
(PID.TID 0000.0001) // =======================================================
time,SST,SSS,fu,fv,Q,E-P,i0,i1,a,b =   4.9680E+06 -3.8688E-01  3.4487E+01 -1.9753E-02 -1.0528E-02  2.3003E+02  0.0000E+00     2     3  4.1667E-01  5.8333E-01
time,fu0,fu1,fu =   4.9680E+06 -1.4435E-02 -2.7199E-02 -1.9753E-02  4.1667E-01  5.8333E-01
 cg2d: Sum(rhs),rhsMax =   1.57637791708964E-13  7.15894851281650E+00
(PID.TID 0000.0001)                    cg2d_init_res =    3.03393768940611E-01
(PID.TID 0000.0001)                       cg2d_iters =    24
(PID.TID 0000.0001)                         cg2d_res =    4.88629178842599E-14
(PID.TID 0000.0001) // =======================================================
(PID.TID 0000.0001) // Begin MONITOR dynamic field statistics
(PID.TID 0000.0001) // =======================================================
(PID.TID 0000.0001) %MON time_tsnumber                =                   116
(PID.TID 0000.0001) %MON time_secondsf                =   5.0112000000000E+06
(PID.TID 0000.0001) %MON dynstat_eta_max              =   8.1536772608215E-01
(PID.TID 0000.0001) %MON dynstat_eta_min              =  -1.4706828923965E+00
(PID.TID 0000.0001) %MON dynstat_eta_mean             =   9.3806609685116E-17
(PID.TID 0000.0001) %MON dynstat_eta_sd               =   4.8690763755581E-01
(PID.TID 0000.0001) %MON dynstat_eta_del2             =   1.8854170615458E-02
(PID.TID 0000.0001) %MON dynstat_uvel_max             =   2.0080339260634E-01
(PID.TID 0000.0001) %MON dynstat_uvel_min             =  -1.3680119837466E-01
(PID.TID 0000.0001) %MON dynstat_uvel_mean            =   9.3863752420796E-04
(PID.TID 0000.0001) %MON dynstat_uvel_sd              =   1.6600797458381E-02
(PID.TID 0000.0001) %MON dynstat_uvel_del2            =   4.5754003330810E-03
(PID.TID 0000.0001) %MON dynstat_vvel_max             =   1.7099512227941E-01
(PID.TID 0000.0001) %MON dynstat_vvel_min             =  -1.4413562107731E-01
(PID.TID 0000.0001) %MON dynstat_vvel_mean            =   1.6825216165805E-03
(PID.TID 0000.0001) %MON dynstat_vvel_sd              =   1.4283854402853E-02
(PID.TID 0000.0001) %MON dynstat_vvel_del2            =   4.1304511535593E-03
(PID.TID 0000.0001) %MON dynstat_wvel_max             =   3.0366198615690E-04
(PID.TID 0000.0001) %MON dynstat_wvel_min             =  -1.7628561338025E-04
(PID.TID 0000.0001) %MON dynstat_wvel_mean            =   2.2223786175653E-22
(PID.TID 0000.0001) %MON dynstat_wvel_sd              =   1.9273723944216E-05
(PID.TID 0000.0001) %MON dynstat_wvel_del2            =   7.2975782786043E-06
(PID.TID 0000.0001) %MON dynstat_theta_max            =   2.9888962415028E+01
(PID.TID 0000.0001) %MON dynstat_theta_min            =  -1.9277394030354E+00
(PID.TID 0000.0001) %MON dynstat_theta_mean           =   3.5886789236710E+00
(PID.TID 0000.0001) %MON dynstat_theta_sd             =   4.3349609739359E+00
(PID.TID 0000.0001) %MON dynstat_theta_del2           =   1.2721376921415E-01
(PID.TID 0000.0001) %MON dynstat_salt_max             =   3.7381651410615E+01
(PID.TID 0000.0001) %MON dynstat_salt_min             =   2.9699215353701E+01
(PID.TID 0000.0001) %MON dynstat_salt_mean            =   3.4716041314104E+01
(PID.TID 0000.0001) %MON dynstat_salt_sd              =   2.9294160113973E-01
(PID.TID 0000.0001) %MON dynstat_salt_del2            =   2.2437013730039E-02
(PID.TID 0000.0001) %MON advcfl_uvel_max              =   3.3186336788839E-02
(PID.TID 0000.0001) %MON advcfl_vvel_max              =   1.6610804913420E-02
(PID.TID 0000.0001) %MON advcfl_wvel_max              =   6.7667378544916E-02
(PID.TID 0000.0001) %MON advcfl_W_hf_max              =   7.5818117946372E-02
(PID.TID 0000.0001) %MON pe_b_mean                    =   3.0337121709799E-04
(PID.TID 0000.0001) %MON ke_max                       =   2.1329163408192E-02
(PID.TID 0000.0001) %MON ke_mean                      =   2.1847161895529E-04
(PID.TID 0000.0001) %MON ke_vol                       =   1.3226782436723E+18
(PID.TID 0000.0001) %MON vort_r_min                   =  -8.3470838600819E-07
(PID.TID 0000.0001) %MON vort_r_max                   =   6.2234813461480E-07
(PID.TID 0000.0001) %MON vort_a_mean                  =  -2.5205768969777E-05
(PID.TID 0000.0001) %MON vort_a_sd                    =   7.3403415556952E-05
(PID.TID 0000.0001) %MON vort_p_mean                  =  -3.1758669023665E-05
(PID.TID 0000.0001) %MON vort_p_sd                    =   1.3126102710928E-04
(PID.TID 0000.0001) %MON surfExpan_theta_mean         =   1.7799024360348E-06
(PID.TID 0000.0001) %MON surfExpan_salt_mean          =  -4.6910421622172E-07
(PID.TID 0000.0001) // =======================================================
(PID.TID 0000.0001) // End MONITOR dynamic field statistics
(PID.TID 0000.0001) // =======================================================
time,SST,SSS,fu,fv,Q,E-P,i0,i1,a,b =   5.0112E+06 -3.8108E-01  3.4490E+01 -1.9966E-02 -1.0244E-02  2.2961E+02  0.0000E+00     2     3  4.3333E-01  5.6667E-01
time,fu0,fu1,fu =   5.0112E+06 -1.4435E-02 -2.7199E-02 -1.9966E-02  4.3333E-01  5.6667E-01
 cg2d: Sum(rhs),rhsMax =  -3.44502204541186E-13  7.16526382978684E+00
(PID.TID 0000.0001)                    cg2d_init_res =    2.94125363910628E-01
(PID.TID 0000.0001)                       cg2d_iters =    24
(PID.TID 0000.0001)                         cg2d_res =    5.00423951116006E-14
(PID.TID 0000.0001) // =======================================================
(PID.TID 0000.0001) // Begin MONITOR dynamic field statistics
(PID.TID 0000.0001) // =======================================================
(PID.TID 0000.0001) %MON time_tsnumber                =                   117
(PID.TID 0000.0001) %MON time_secondsf                =   5.0544000000000E+06
(PID.TID 0000.0001) %MON dynstat_eta_max              =   8.1642129935719E-01
(PID.TID 0000.0001) %MON dynstat_eta_min              =  -1.4740115950750E+00
(PID.TID 0000.0001) %MON dynstat_eta_mean             =  -7.2305665261743E-17
(PID.TID 0000.0001) %MON dynstat_eta_sd               =   4.8805743730899E-01
(PID.TID 0000.0001) %MON dynstat_eta_del2             =   1.8856786912176E-02
(PID.TID 0000.0001) %MON dynstat_uvel_max             =   1.9862724295190E-01
(PID.TID 0000.0001) %MON dynstat_uvel_min             =  -1.3618146661765E-01
(PID.TID 0000.0001) %MON dynstat_uvel_mean            =   9.4514029118872E-04
(PID.TID 0000.0001) %MON dynstat_uvel_sd              =   1.6635002822484E-02
(PID.TID 0000.0001) %MON dynstat_uvel_del2            =   4.5586488018331E-03
(PID.TID 0000.0001) %MON dynstat_vvel_max             =   1.7139516669711E-01
(PID.TID 0000.0001) %MON dynstat_vvel_min             =  -1.4445546192550E-01
(PID.TID 0000.0001) %MON dynstat_vvel_mean            =   1.6851300664323E-03
(PID.TID 0000.0001) %MON dynstat_vvel_sd              =   1.4271252364924E-02
(PID.TID 0000.0001) %MON dynstat_vvel_del2            =   4.1223221204525E-03
(PID.TID 0000.0001) %MON dynstat_wvel_max             =   2.9848069367221E-04
(PID.TID 0000.0001) %MON dynstat_wvel_min             =  -1.7551350467382E-04
(PID.TID 0000.0001) %MON dynstat_wvel_mean            =   2.2399855337947E-22
(PID.TID 0000.0001) %MON dynstat_wvel_sd              =   1.9165199410734E-05
(PID.TID 0000.0001) %MON dynstat_wvel_del2            =   7.2527130803300E-06
(PID.TID 0000.0001) %MON dynstat_theta_max            =   2.9890412052085E+01
(PID.TID 0000.0001) %MON dynstat_theta_min            =  -1.9273585655772E+00
(PID.TID 0000.0001) %MON dynstat_theta_mean           =   3.5886977715215E+00
(PID.TID 0000.0001) %MON dynstat_theta_sd             =   4.3351044643969E+00
(PID.TID 0000.0001) %MON dynstat_theta_del2           =   1.2708982684987E-01
(PID.TID 0000.0001) %MON dynstat_salt_max             =   3.7381193400491E+01
(PID.TID 0000.0001) %MON dynstat_salt_min             =   2.9698055490067E+01
(PID.TID 0000.0001) %MON dynstat_salt_mean            =   3.4716047141088E+01
(PID.TID 0000.0001) %MON dynstat_salt_sd              =   2.9290938641660E-01
(PID.TID 0000.0001) %MON dynstat_salt_del2            =   2.2414961522479E-02
(PID.TID 0000.0001) %MON advcfl_uvel_max              =   3.2826689302819E-02
(PID.TID 0000.0001) %MON advcfl_vvel_max              =   1.6649666020629E-02
(PID.TID 0000.0001) %MON advcfl_wvel_max              =   6.7368760914977E-02
(PID.TID 0000.0001) %MON advcfl_W_hf_max              =   7.5490062517999E-02
(PID.TID 0000.0001) %MON pe_b_mean                    =   3.0480569040088E-04
(PID.TID 0000.0001) %MON ke_max                       =   2.1235816646538E-02
(PID.TID 0000.0001) %MON ke_mean                      =   2.1883605912680E-04
(PID.TID 0000.0001) %MON ke_vol                       =   1.3226782436723E+18
(PID.TID 0000.0001) %MON vort_r_min                   =  -8.3265415580414E-07
(PID.TID 0000.0001) %MON vort_r_max                   =   6.1575278364218E-07
(PID.TID 0000.0001) %MON vort_a_mean                  =  -2.5205768998587E-05
(PID.TID 0000.0001) %MON vort_a_sd                    =   7.3403415551367E-05
(PID.TID 0000.0001) %MON vort_p_mean                  =  -3.1758669059965E-05
(PID.TID 0000.0001) %MON vort_p_sd                    =   1.3126099147506E-04
(PID.TID 0000.0001) %MON surfExpan_theta_mean         =   1.6725092544603E-06
(PID.TID 0000.0001) %MON surfExpan_salt_mean          =  -5.0577865972563E-07
(PID.TID 0000.0001) // =======================================================
(PID.TID 0000.0001) // End MONITOR dynamic field statistics
(PID.TID 0000.0001) // =======================================================
time,SST,SSS,fu,fv,Q,E-P,i0,i1,a,b =   5.0544E+06 -3.7528E-01  3.4492E+01 -2.0179E-02 -9.9597E-03  2.2919E+02  0.0000E+00     2     3  4.5000E-01  5.5000E-01
time,fu0,fu1,fu =   5.0544E+06 -1.4435E-02 -2.7199E-02 -2.0179E-02  4.5000E-01  5.5000E-01
 cg2d: Sum(rhs),rhsMax =   6.24250651171110E-13  7.15340790853160E+00
(PID.TID 0000.0001)                    cg2d_init_res =    2.85501728380347E-01
(PID.TID 0000.0001)                       cg2d_iters =    24
(PID.TID 0000.0001)                         cg2d_res =    5.23404363198255E-14
(PID.TID 0000.0001) // =======================================================
(PID.TID 0000.0001) // Begin MONITOR dynamic field statistics
(PID.TID 0000.0001) // =======================================================
(PID.TID 0000.0001) %MON time_tsnumber                =                   118
(PID.TID 0000.0001) %MON time_secondsf                =   5.0976000000000E+06
(PID.TID 0000.0001) %MON dynstat_eta_max              =   8.1540655426957E-01
(PID.TID 0000.0001) %MON dynstat_eta_min              =  -1.4772617650386E+00
(PID.TID 0000.0001) %MON dynstat_eta_mean             =   1.3741133452874E-16
(PID.TID 0000.0001) %MON dynstat_eta_sd               =   4.8917726042657E-01
(PID.TID 0000.0001) %MON dynstat_eta_del2             =   1.8874651201987E-02
(PID.TID 0000.0001) %MON dynstat_uvel_max             =   1.9577511937758E-01
(PID.TID 0000.0001) %MON dynstat_uvel_min             =  -1.3621416150161E-01
(PID.TID 0000.0001) %MON dynstat_uvel_mean            =   9.5065558107696E-04
(PID.TID 0000.0001) %MON dynstat_uvel_sd              =   1.6663467505076E-02
(PID.TID 0000.0001) %MON dynstat_uvel_del2            =   4.5432995375588E-03
(PID.TID 0000.0001) %MON dynstat_vvel_max             =   1.7164700379446E-01
(PID.TID 0000.0001) %MON dynstat_vvel_min             =  -1.4461776521118E-01
(PID.TID 0000.0001) %MON dynstat_vvel_mean            =   1.6819593423503E-03
(PID.TID 0000.0001) %MON dynstat_vvel_sd              =   1.4252134256514E-02
(PID.TID 0000.0001) %MON dynstat_vvel_del2            =   4.1127148561304E-03
(PID.TID 0000.0001) %MON dynstat_wvel_max             =   2.9338092577898E-04
(PID.TID 0000.0001) %MON dynstat_wvel_min             =  -1.7576824286214E-04
(PID.TID 0000.0001) %MON dynstat_wvel_mean            =   2.9642217297498E-22
(PID.TID 0000.0001) %MON dynstat_wvel_sd              =   1.9052933950740E-05
(PID.TID 0000.0001) %MON dynstat_wvel_del2            =   7.2075958825286E-06
(PID.TID 0000.0001) %MON dynstat_theta_max            =   2.9891205917934E+01
(PID.TID 0000.0001) %MON dynstat_theta_min            =  -1.9327922806182E+00
(PID.TID 0000.0001) %MON dynstat_theta_mean           =   3.5887164973748E+00
(PID.TID 0000.0001) %MON dynstat_theta_sd             =   4.3352456132990E+00
(PID.TID 0000.0001) %MON dynstat_theta_del2           =   1.2694493377315E-01
(PID.TID 0000.0001) %MON dynstat_salt_max             =   3.7380740428893E+01
(PID.TID 0000.0001) %MON dynstat_salt_min             =   2.9696933332139E+01
(PID.TID 0000.0001) %MON dynstat_salt_mean            =   3.4716053281612E+01
(PID.TID 0000.0001) %MON dynstat_salt_sd              =   2.9287807542691E-01
(PID.TID 0000.0001) %MON dynstat_salt_del2            =   2.2388803291779E-02
(PID.TID 0000.0001) %MON advcfl_uvel_max              =   3.2355325087941E-02
(PID.TID 0000.0001) %MON advcfl_vvel_max              =   1.6674129975145E-02
(PID.TID 0000.0001) %MON advcfl_wvel_max              =   6.5730572546233E-02
(PID.TID 0000.0001) %MON advcfl_W_hf_max              =   7.3827164090674E-02
(PID.TID 0000.0001) %MON pe_b_mean                    =   3.0620601754603E-04
(PID.TID 0000.0001) %MON ke_max                       =   2.1012066905682E-02
(PID.TID 0000.0001) %MON ke_mean                      =   2.1902181509475E-04
(PID.TID 0000.0001) %MON ke_vol                       =   1.3226782436723E+18
(PID.TID 0000.0001) %MON vort_r_min                   =  -8.2996808740936E-07
(PID.TID 0000.0001) %MON vort_r_max                   =   6.0761110806458E-07
(PID.TID 0000.0001) %MON vort_a_mean                  =  -2.5205769024234E-05
(PID.TID 0000.0001) %MON vort_a_sd                    =   7.3403415295126E-05
(PID.TID 0000.0001) %MON vort_p_mean                  =  -3.1758669092280E-05
(PID.TID 0000.0001) %MON vort_p_sd                    =   1.3126095918181E-04
(PID.TID 0000.0001) %MON surfExpan_theta_mean         =   1.6181972035504E-06
(PID.TID 0000.0001) %MON surfExpan_salt_mean          =  -5.3714458183126E-07
(PID.TID 0000.0001) // =======================================================
(PID.TID 0000.0001) // End MONITOR dynamic field statistics
(PID.TID 0000.0001) // =======================================================
time,SST,SSS,fu,fv,Q,E-P,i0,i1,a,b =   5.0976E+06 -3.6948E-01  3.4495E+01 -2.0391E-02 -9.6754E-03  2.2877E+02  0.0000E+00     2     3  4.6667E-01  5.3333E-01
time,fu0,fu1,fu =   5.0976E+06 -1.4435E-02 -2.7199E-02 -2.0391E-02  4.6667E-01  5.3333E-01
 cg2d: Sum(rhs),rhsMax =  -1.10023101740353E-13  7.12293489001630E+00
(PID.TID 0000.0001)                    cg2d_init_res =    2.78011797641942E-01
(PID.TID 0000.0001)                       cg2d_iters =    24
(PID.TID 0000.0001)                         cg2d_res =    5.51215977651091E-14
(PID.TID 0000.0001) // =======================================================
(PID.TID 0000.0001) // Begin MONITOR dynamic field statistics
(PID.TID 0000.0001) // =======================================================
(PID.TID 0000.0001) %MON time_tsnumber                =                   119
(PID.TID 0000.0001) %MON time_secondsf                =   5.1408000000000E+06
(PID.TID 0000.0001) %MON dynstat_eta_max              =   8.1227305763002E-01
(PID.TID 0000.0001) %MON dynstat_eta_min              =  -1.4805295323188E+00
(PID.TID 0000.0001) %MON dynstat_eta_mean             =  -2.1837466936617E-16
(PID.TID 0000.0001) %MON dynstat_eta_sd               =   4.9026489734504E-01
(PID.TID 0000.0001) %MON dynstat_eta_del2             =   1.8903276014799E-02
(PID.TID 0000.0001) %MON dynstat_uvel_max             =   1.9231123507552E-01
(PID.TID 0000.0001) %MON dynstat_uvel_min             =  -1.3619054569697E-01
(PID.TID 0000.0001) %MON dynstat_uvel_mean            =   9.5483034045271E-04
(PID.TID 0000.0001) %MON dynstat_uvel_sd              =   1.6687087766975E-02
(PID.TID 0000.0001) %MON dynstat_uvel_del2            =   4.5289515620291E-03
(PID.TID 0000.0001) %MON dynstat_vvel_max             =   1.7175252160591E-01
(PID.TID 0000.0001) %MON dynstat_vvel_min             =  -1.4463309051737E-01
(PID.TID 0000.0001) %MON dynstat_vvel_mean            =   1.6736647709568E-03
(PID.TID 0000.0001) %MON dynstat_vvel_sd              =   1.4225749228410E-02
(PID.TID 0000.0001) %MON dynstat_vvel_del2            =   4.1027799401142E-03
(PID.TID 0000.0001) %MON dynstat_wvel_max             =   2.8837657038675E-04
(PID.TID 0000.0001) %MON dynstat_wvel_min             =  -1.7589641820045E-04
(PID.TID 0000.0001) %MON dynstat_wvel_mean            =  -1.8671935909178E-22
(PID.TID 0000.0001) %MON dynstat_wvel_sd              =   1.8937543808190E-05
(PID.TID 0000.0001) %MON dynstat_wvel_del2            =   7.1634960455893E-06
(PID.TID 0000.0001) %MON dynstat_theta_max            =   2.9891307643113E+01
(PID.TID 0000.0001) %MON dynstat_theta_min            =  -1.9305193648727E+00
(PID.TID 0000.0001) %MON dynstat_theta_mean           =   3.5887344651957E+00
(PID.TID 0000.0001) %MON dynstat_theta_sd             =   4.3353775174423E+00
(PID.TID 0000.0001) %MON dynstat_theta_del2           =   1.2694108056168E-01
(PID.TID 0000.0001) %MON dynstat_salt_max             =   3.7380293705587E+01
(PID.TID 0000.0001) %MON dynstat_salt_min             =   2.9695847708456E+01
(PID.TID 0000.0001) %MON dynstat_salt_mean            =   3.4716059654879E+01
(PID.TID 0000.0001) %MON dynstat_salt_sd              =   2.9284364955037E-01
(PID.TID 0000.0001) %MON dynstat_salt_del2            =   2.2391783947130E-02
(PID.TID 0000.0001) %MON advcfl_uvel_max              =   3.1782856517796E-02
(PID.TID 0000.0001) %MON advcfl_vvel_max              =   1.6684380184377E-02
(PID.TID 0000.0001) %MON advcfl_wvel_max              =   6.2863114770435E-02
(PID.TID 0000.0001) %MON advcfl_W_hf_max              =   7.0939215648258E-02
(PID.TID 0000.0001) %MON pe_b_mean                    =   3.0756916844459E-04
(PID.TID 0000.0001) %MON ke_max                       =   2.0665390861428E-02
(PID.TID 0000.0001) %MON ke_mean                      =   2.1903348790270E-04
(PID.TID 0000.0001) %MON ke_vol                       =   1.3226782436723E+18
(PID.TID 0000.0001) %MON vort_r_min                   =  -8.2672942783359E-07
(PID.TID 0000.0001) %MON vort_r_max                   =   5.9806088404431E-07
(PID.TID 0000.0001) %MON vort_a_mean                  =  -2.5205769049284E-05
(PID.TID 0000.0001) %MON vort_a_sd                    =   7.3403414671865E-05
(PID.TID 0000.0001) %MON vort_p_mean                  =  -3.1758669123842E-05
(PID.TID 0000.0001) %MON vort_p_sd                    =   1.3126092983456E-04
(PID.TID 0000.0001) %MON surfExpan_theta_mean         =   1.6172774105383E-06
(PID.TID 0000.0001) %MON surfExpan_salt_mean          =  -5.6282576113929E-07
(PID.TID 0000.0001) // =======================================================
(PID.TID 0000.0001) // End MONITOR dynamic field statistics
(PID.TID 0000.0001) // =======================================================
time,SST,SSS,fu,fv,Q,E-P,i0,i1,a,b =   5.1408E+06 -3.6368E-01  3.4497E+01 -2.0604E-02 -9.3911E-03  2.2836E+02  0.0000E+00     2     3  4.8333E-01  5.1667E-01
time,fu0,fu1,fu =   5.1408E+06 -1.4435E-02 -2.7199E-02 -2.0604E-02  4.8333E-01  5.1667E-01
 cg2d: Sum(rhs),rhsMax =   6.39488462184090E-14  7.07410812803971E+00
(PID.TID 0000.0001)                    cg2d_init_res =    2.72257098571171E-01
(PID.TID 0000.0001)                       cg2d_iters =    24
(PID.TID 0000.0001)                         cg2d_res =    5.74794135026099E-14
(PID.TID 0000.0001) // =======================================================
(PID.TID 0000.0001) // Begin MONITOR dynamic field statistics
(PID.TID 0000.0001) // =======================================================
(PID.TID 0000.0001) %MON time_tsnumber                =                   120
(PID.TID 0000.0001) %MON time_secondsf                =   5.1840000000000E+06
(PID.TID 0000.0001) %MON dynstat_eta_max              =   8.0705029653067E-01
(PID.TID 0000.0001) %MON dynstat_eta_min              =  -1.4838863674089E+00
(PID.TID 0000.0001) %MON dynstat_eta_mean             =  -5.6638158215160E-17
(PID.TID 0000.0001) %MON dynstat_eta_sd               =   4.9132045367693E-01
(PID.TID 0000.0001) %MON dynstat_eta_del2             =   1.8916869835387E-02
(PID.TID 0000.0001) %MON dynstat_uvel_max             =   1.8830939923896E-01
(PID.TID 0000.0001) %MON dynstat_uvel_min             =  -1.3611341055292E-01
(PID.TID 0000.0001) %MON dynstat_uvel_mean            =   9.5732629897054E-04
(PID.TID 0000.0001) %MON dynstat_uvel_sd              =   1.6706563062482E-02
(PID.TID 0000.0001) %MON dynstat_uvel_del2            =   4.5159279023357E-03
(PID.TID 0000.0001) %MON dynstat_vvel_max             =   1.7171394255846E-01
(PID.TID 0000.0001) %MON dynstat_vvel_min             =  -1.4451275316977E-01
(PID.TID 0000.0001) %MON dynstat_vvel_mean            =   1.6608735208653E-03
(PID.TID 0000.0001) %MON dynstat_vvel_sd              =   1.4191760419494E-02
(PID.TID 0000.0001) %MON dynstat_vvel_del2            =   4.0926556348535E-03
(PID.TID 0000.0001) %MON dynstat_wvel_max             =   2.8347833630291E-04
(PID.TID 0000.0001) %MON dynstat_wvel_min             =  -1.7569162831039E-04
(PID.TID 0000.0001) %MON dynstat_wvel_mean            =   1.5893841960784E-22
(PID.TID 0000.0001) %MON dynstat_wvel_sd              =   1.8819503195680E-05
(PID.TID 0000.0001) %MON dynstat_wvel_del2            =   7.1188257045134E-06
(PID.TID 0000.0001) %MON dynstat_theta_max            =   2.9890676175330E+01
(PID.TID 0000.0001) %MON dynstat_theta_min            =  -1.9280847422358E+00
(PID.TID 0000.0001) %MON dynstat_theta_mean           =   3.5887509836501E+00
(PID.TID 0000.0001) %MON dynstat_theta_sd             =   4.3355059710931E+00
(PID.TID 0000.0001) %MON dynstat_theta_del2           =   1.2680428393099E-01
(PID.TID 0000.0001) %MON dynstat_salt_max             =   3.7379850212539E+01
(PID.TID 0000.0001) %MON dynstat_salt_min             =   2.9694797133275E+01
(PID.TID 0000.0001) %MON dynstat_salt_mean            =   3.4716066179520E+01
(PID.TID 0000.0001) %MON dynstat_salt_sd              =   2.9281351598732E-01
(PID.TID 0000.0001) %MON dynstat_salt_del2            =   2.2367612175488E-02
(PID.TID 0000.0001) %MON advcfl_uvel_max              =   3.1121481876053E-02
(PID.TID 0000.0001) %MON advcfl_vvel_max              =   1.6680632539284E-02
(PID.TID 0000.0001) %MON advcfl_wvel_max              =   5.8900997031488E-02
(PID.TID 0000.0001) %MON advcfl_W_hf_max              =   6.6959912820977E-02
(PID.TID 0000.0001) %MON pe_b_mean                    =   3.0889500712125E-04
(PID.TID 0000.0001) %MON ke_max                       =   2.0205526122649E-02
(PID.TID 0000.0001) %MON ke_mean                      =   2.1887834716379E-04
(PID.TID 0000.0001) %MON ke_vol                       =   1.3226782436723E+18
(PID.TID 0000.0001) %MON vort_r_min                   =  -8.2301623974435E-07
(PID.TID 0000.0001) %MON vort_r_max                   =   5.8725919180450E-07
(PID.TID 0000.0001) %MON vort_a_mean                  =  -2.5205769072562E-05
(PID.TID 0000.0001) %MON vort_a_sd                    =   7.3403413610637E-05
(PID.TID 0000.0001) %MON vort_p_mean                  =  -3.1758669153172E-05
(PID.TID 0000.0001) %MON vort_p_sd                    =   1.3126090316892E-04
(PID.TID 0000.0001) %MON surfExpan_theta_mean         =   1.6769037343921E-06
(PID.TID 0000.0001) %MON surfExpan_salt_mean          =  -5.8081055979703E-07
(PID.TID 0000.0001) // =======================================================
(PID.TID 0000.0001) // End MONITOR dynamic field statistics
(PID.TID 0000.0001) // =======================================================
  --> objf_test(bi,bj)   =  0.
  --> objf_tracer(bi,bj) =  0.
  --> objf_atl(bi,bj)    = -0.135436433
  local fc =  -0.135436433
  global fc =  -0.135436433
 ph-check fcpertplus =  -0.135436433
(PID.TID 0000.0001)  MDSREADFIELD: opening file: xx_theta.0000000000.001.001.data
 ph-check fcpertminus =  -0.135436441
(PID.TID 0000.0001)  MDSREADFIELD: opening file: xx_theta.0000000000.001.001.data
(PID.TID 0000.0001) %MON surfExpanfCori_max           =   1.4226580169407E-04
(PID.TID 0000.0001) %MON surfExpanfCori_min           =  -1.4226580169407E-04
(PID.TID 0000.0001) %MON surfExpanfCori_mean          =   7.5291817533716E-23
(PID.TID 0000.0001) %MON surfExpanfCori_sd            =   9.6335367303778E-05
(PID.TID 0000.0001) %MON surfExpanfCoriG_max          =   1.4112379284621E-04
(PID.TID 0000.0001) %MON surfExpanfCoriG_min          =  -1.4323448157692E-04
(PID.TID 0000.0001) %MON surfExpanfCoriG_mean         =  -3.6726790147928E-06
(PID.TID 0000.0001) %MON surfExpanfCoriG_sd           =   9.7510077443652E-05
(PID.TID 0000.0001) %MON surfExpanfCoriCos_max        =   1.4535550371427E-04
(PID.TID 0000.0001) %MON surfExpanfCoriCos_min        =   3.0239529651320E-05
(PID.TID 0000.0001) %MON surfExpanfCoriCos_mean       =   1.0260497651149E-04
(PID.TID 0000.0001) %MON surfExpanfCoriCos_sd         =   3.6683828681187E-05
(PID.TID 0000.0001) // CG2D normalisation factor =          0.6568267742571170272718184E-04
(PID.TID 0000.0001) 
(PID.TID 0000.0001)  MDSREADFIELD: opening global file: lev_t.bin
(PID.TID 0000.0001) // =======================================================
(PID.TID 0000.0001) // Field Initial Temperature at iteration          1
(PID.TID 0000.0001) // CMIN =         -1.900000000000000E+00
(PID.TID 0000.0001) // CMAX =          2.973338890075684E+01
(PID.TID 0000.0001) // CINT =          1.171606996324327E+00
(PID.TID 0000.0001) // SYMBOLS (CMIN->CMAX): -abcdefghijklmnopqrstuvwxyz+
(PID.TID 0000.0001) //                  0.0: .
(PID.TID 0000.0001) // RANGE I (Lo:Hi:Step):(   1:  90:   1)
(PID.TID 0000.0001) // RANGE J (Lo:Hi:Step):(  40:   1:  -1)
(PID.TID 0000.0001) // RANGE K (Lo:Hi:Step):(   1:   1:   1)
(PID.TID 0000.0001) // =======================================================
(PID.TID 0000.0001) K =   1
(PID.TID 0000.0001)                I=10      I=20      I=30      I=40      I=50      I=60      I=70      I=80      I=90
(PID.TID 0000.0001) |--J--|123456789|123456789|123456789|123456789|123456789|123456789|123456789|123456789|123456789|
(PID.TID 0000.0001)     40 bccdd.baa----abdedd..................................................................bbbbb
(PID.TID 0000.0001)     39 ccdddddccbbbaa...ed.....................................................----........bbbbbb
(PID.TID 0000.0001)     38 fffgfedeedddc...........................................................-----......cbbbcde
(PID.TID 0000.0001)     37 ghh..................................................................bc...bbc...edeed.defg
(PID.TID 0000.0001)     36 hh.........................................ddcb....................dcccbabccdd.eefghhihhih
(PID.TID 0000.0001)     35 hh.................................aaab..dddeddd...ffggg...........ccc....ddeeeffghijjjjih
(PID.TID 0000.0001)     34 ...................................babb.deeeeeee.ffffgghh..................ccdffghijkkkj..
(PID.TID 0000.0001)     33 ....................................accdddeeeeefffffgghhiii.................bcfijkkllllkk.
(PID.TID 0000.0001)     32 ....................................bdddeffgffgghhhhhiiijjj................dccglmnmmmmlll.
(PID.TID 0000.0001)     31 ....................................fghiiiijjjjjjkkkkklllkk..............ikkjjmooooonnmm..
(PID.TID 0000.0001)     30 ...................................mmmnmmmmmmmmmmmmmnnnnnmm............moqrrrqrqqqpppooo..
(PID.TID 0000.0001)     29 .................................pqqqqqpppppppppoppoppppponm...........ssssssrrrrrqqqqpp..
(PID.TID 0000.0001)     28 ...............................prssssrrrsssrrrrrrrrrrrrrqqpoo.........uttssstssrssrrrqqq..
(PID.TID 0000.0001)     27 ..............vv..............stuttuuuuutuuuuuuuuuuttttssrrqqq...stuu.vvvuuuuutttttsss....
(PID.TID 0000.0001)     26 ..............vvv...........uuvvvvvwwwwwwwwvvvvvvvvvuuutttsssttv.uuvxxwwwwwwvvvvuuttsr....
(PID.TID 0000.0001)     25 ..............wwwx...xxx...vvvxxxxxyyxxxxxxxxxwwwwwvvvvvuuuuuvwwx...xxxxxxwwwwwwvvutsr....
(PID.TID 0000.0001)     24 ............wwwwxyy.xxyy...wxx.yyyyyyyyyyyxxxxxxxxwwwwwwwvvwwxxyywww.xxxxxxxxxxwwwvvur....
(PID.TID 0000.0001)     23 ............xxxyyyz.xyyy...xxx..yyyyzzyyyyyyyyxxxxxxxxxwwwwwxxxwwwwwx....vwxxxxwwwwwvu....
(PID.TID 0000.0001)     22 w...........xxyyyzyyyyyz...xx.yyzzzzzzzzzzzzzyyzyyyyyyxxwwxxxxwvvvwwxw......yyyyxxxxxxwxxw
(PID.TID 0000.0001)     21 xxx........xxxxyyzzzzzzz+.....zyzzzzzzz++zzzzyyyyyyyyxxwvvwwwwvvvvvvvu........yyyyyyyyyxxx
(PID.TID 0000.0001)     20 xww.......xyyyyxyyzzzzzz+......z.zzzzz+++zzzzzzyyyyyxxxxwvwxwvuuuuuuut.........yyyyxxxxwww
(PID.TID 0000.0001)     19 vvv.......yyyyxwwxyzyyzzzzz...zzz.....++++++z++z+zzzyyyyxxxxwwvvvvvvvu...........yyxxxwwww
(PID.TID 0000.0001)     18 uut.......zzyyywwxyzyyyyzzyzzzzzz...z+z++++zz+++++++zzzyyyyxxwwwvvvvvtt..........yyxxwvvwv
(PID.TID 0000.0001)     17 uus.......z.yyyyyyxyzzyyyyyyyzz.....yzzzzzzzzzzzzzzzzzzyyyyxxwwvuuvvuut.........yyyxxwttvu
(PID.TID 0000.0001)     16 utr......yy.zyyyyxxxxxxxwxxxxy.......yyyyyyyyyyyyyyyyyyyyyyyxxwvvvuuutts........xyyyxwvuuu
(PID.TID 0000.0001)     15 ttrr....xxx.xxxwxwwwwvwwvvvww.........xwxxxxxxxxxxxxxxxxxyyyxwwwvvuttssrr......wxxxxxwwvuu
(PID.TID 0000.0001)     14 ttsq....xyxwwxwvwwwvutuuuuuuu.........wwvwwwwvwvvwwwvwvvwwwwwwvvvuuutssrr.....vwwwwwwwvvvu
(PID.TID 0000.0001)     13 tttr....wwwvvvtttuuuutttssttt.........vvvuuuuuuutttttuuuuuvwwwuuuttttssrr....uvvvvvvvvvvut
(PID.TID 0000.0001)     12 sssssstttutssssrrrrrstrqqrrssqqrrq....uuttssssrrrrrrrrrrrstttssssrssrrqp.....uuuttssttssss
(PID.TID 0000.0001)     11 poprsssrqqqqqrqppooopqpoppppppppppp..sssrrr.rqpppqqqqppppqqqoppqqqqrqqpp....prsrqqqqqppppq
(PID.TID 0000.0001)     10 lllmoooonmnnmnnnnmmmmmmlmmlllmnnnnon.qqqppp.ppppppooooooooonmnnnonnooooo..nmoponnmnnnnnmll
(PID.TID 0000.0001)      9 ihhiiiihhhhhhiiihiiiiihhhiiiijjkkmnllnnnnn.mmmmnnnnmmmmnnmmlklllllklllll.mllmmllkjiijjihhi
(PID.TID 0000.0001)      8 eeeeeeeedefgggffeeffggffffggghiiiijjijklklkkkkkkkklllkkkkjjiiijkjjjjjjkj.kkjjiihggffffedde
(PID.TID 0000.0001)      7 cccccddeedddefeddddddddddefeefffffgggghiiiiiijjjihhgggghhhhhghhhhhhhiiiihiihhgfeddddddcccc
(PID.TID 0000.0001)      6 abbcccddcccccdddddccdddddddccddddddeeeeffggggghhgeddddddeeeeeeefggggghggggffeedccbbbbbbbba
(PID.TID 0000.0001)      5 bbbcccccccccccccccccccccbbccccdddddddcccddeeddeedcbbbbbbccccccdddeeeeeddddddccbbbbaaaaaaab
(PID.TID 0000.0001)      4 bbbbbbbaaabbbbbbbbbbbbaabbabbbbcbbbbbbbbbbbbbbbbbbbabbaaabbbbbbbbbbbbbbbbb..a--aaabbbaaabb
(PID.TID 0000.0001)      3 bbbbaaa-a-............................bbaaaaaaaaaaaaaaaaaaaaaaaaaaaaaaaab..aaaaaaaabbbaaaa
(PID.TID 0000.0001)      2 ..........................................baaaaaaaaaaaa-------aa..aaaa.....aaaaaaaaaaaa...
(PID.TID 0000.0001)      1 ..........................................................................................
(PID.TID 0000.0001) // =======================================================
(PID.TID 0000.0001) // END OF FIELD                                          =
(PID.TID 0000.0001) // =======================================================
(PID.TID 0000.0001) 
(PID.TID 0000.0001)  MDSREADFIELD: opening global file: lev_s.bin
(PID.TID 0000.0001) // =======================================================
(PID.TID 0000.0001) // Field Initial Salinity at iteration          1
(PID.TID 0000.0001) // CMIN =          2.975276947021484E+01
(PID.TID 0000.0001) // CMAX =          3.747562789916992E+01
(PID.TID 0000.0001) // CINT =          2.860317936650029E-01
(PID.TID 0000.0001) // SYMBOLS (CMIN->CMAX): -abcdefghijklmnopqrstuvwxyz+
(PID.TID 0000.0001) //                  0.0: .
(PID.TID 0000.0001) // RANGE I (Lo:Hi:Step):(   1:  90:   1)
(PID.TID 0000.0001) // RANGE J (Lo:Hi:Step):(  40:   1:  -1)
(PID.TID 0000.0001) // RANGE K (Lo:Hi:Step):(   1:   1:   1)
(PID.TID 0000.0001) // =======================================================
(PID.TID 0000.0001) K =   1
(PID.TID 0000.0001)                I=10      I=20      I=30      I=40      I=50      I=60      I=70      I=80      I=90
(PID.TID 0000.0001) |--J--|123456789|123456789|123456789|123456789|123456789|123456789|123456789|123456789|123456789|
(PID.TID 0000.0001)     40 qrrrr.oonnooopqtutt..................................................................mnnop
(PID.TID 0000.0001)     39 rssrrrrrrrqqpn...ut.....................................................mmmm........opqqqr
(PID.TID 0000.0001)     38 ssrrqqqqrrqpo...........................................................lkkll......onoqrrs
(PID.TID 0000.0001)     37 ssr..................................................................hg...lln...qppqr.rrrs
(PID.TID 0000.0001)     36 rr.........................................lkji....................feeegikmoop.pqrssssssss
(PID.TID 0000.0001)     35 rr.................................kkkk..lllllki...jijjj...........aa-....opqrrrrrrrssttss
(PID.TID 0000.0001)     34 ...................................jlll.kklllllk.ijkkkjih..................hlpqrqrrsstts..
(PID.TID 0000.0001)     33 ....................................iklkkkkkkkkkjkkjjjjjjii.................jmprrsstttttt.
(PID.TID 0000.0001)     32 ....................................iklllkllllllllkkkkkkkji................gilpstuuttuuut.
(PID.TID 0000.0001)     31 ....................................lmnonnnnoooonnmmmmllkjj..............loopqtvvvuuuuuu..
(PID.TID 0000.0001)     30 ...................................pppppppqqqqpppoooonnmlkk............ptvxwwvvwvvvvvvvu..
(PID.TID 0000.0001)     29 .................................pqqrqqqqqqrrrqqppqqqpponmll...........vxxxxxxwwwwwxwwxw..
(PID.TID 0000.0001)     28 ...............................prrrrrqqrrrrrsrrsrssssssrqonmm.........wxxxxxxxyyyyyyyyxx..
(PID.TID 0000.0001)     27 ..............xx..............prrrrrrrrrssssssstttssssssrqpoop...uwww.wwxxxyyy++zzzzyy....
(PID.TID 0000.0001)     26 ..............wxx...........ppqrrrrrrsssrrstsstttssrrrrrrrqppqqp.wwwvvwwwwwxyy+++zzyxw....
(PID.TID 0000.0001)     25 ..............wxxv...kkk...ooopqrrrrrssrrrrrrrssssqqpppppppppppoo...vvutuuvvwxyyyxxvvu....
(PID.TID 0000.0001)     24 ............uvvwwur.lmlk...nmm.pqqqqrrrrrqqqqrrqqrpppppooooonmmmnooo.uuuuuuttuvvvuvuut....
(PID.TID 0000.0001)     23 ............vvuvtqp.lmml...mln..ppppqpqppppppqpppppppppqppponnnnnoopm....xvuuuvvvvuuut....
(PID.TID 0000.0001)     22 r...........vuttsqqpnppn...mm.oppqqrrqqqqqqppppqqrrrqqqrrppppoopooomjj......uuvvvvvuttssrr
(PID.TID 0000.0001)     21 qmm........ttsssssssrsqon.....opqqqqqqqrrrrqqqssssssrrrrrrrrpqqqppomll........tvvvvuttssrr
(PID.TID 0000.0001)     20 sqq.......sttssrrsrrrrpol......p.qrqpqrrrrrrrstttttsssrrsssrqrrrrqqqpo.........wwwvvvuuutt
(PID.TID 0000.0001)     19 tsr.......ssssrrrrpppppnmmm...oqq.....qrqqsrrstttuuuttssttssrrssrrrrqq...........wwwvuvvvv
(PID.TID 0000.0001)     18 wut.......ssrrrrrqppppppppoooorrr...poqqqprrrttttuuutuuuuuutttttttutsss..........yyxwwxwxx
(PID.TID 0000.0001)     17 wwu.......s.rrrrrrqppppqqqqqqqr.....rrsrqrsssuusrtuuuvvvwwvvvuuuuutttss.........xyzyyyyxxx
(PID.TID 0000.0001)     16 vvt......ss.qrrssrqrqpqrrrrrrr.......ssrrstsstusrsuuuvwwwwxxwwvvvuttttsr........yz+zzzxwww
(PID.TID 0000.0001)     15 utss....stt.rrssstttsrrsrstsr.........ssstttssttsuuttuvvvvwxwwwwwuttsssrr......xyyyyxyyxwv
(PID.TID 0000.0001)     14 utts....sstrrssstuuuuuuuuuutt.........stttuutttttttuttttttuvvvvvvutsrqrrr.....vxxwwwwxwvwv
(PID.TID 0000.0001)     13 uuut....ttttttttuuuuuvtuuuuuu.........ttttuutttttttuutsssstttttstsqrqqppp....uwwwvuvvvutvv
(PID.TID 0000.0001)     12 ttttttttttttttttttttttssuuuuutuuut....tttttttttttsssssrrrrrrrqqqqqppppoo.....rvvuuttttttuu
(PID.TID 0000.0001)     11 rqsttttttttuuttttsssssrrstttttttsss..ttttts.tsssrrrrqqqqqppppoonnooooooo....oruttttsssrqrs
(PID.TID 0000.0001)     10 pppqrssrqqrqpqrssrrqqqqqqrrrrrrrrrrs.sssssr.rssrrqqpppppppooooonnnoooonn..moqrrrqqqqqqqqqq
(PID.TID 0000.0001)      9 oonooooooooonnnooooooooooppppppqqqqqrrrqrq.pppqqqqqppppppppppoooooooooll.lmoqqqqppooooopoo
(PID.TID 0000.0001)      8 nnnoonooooooonnnnnnnoooonoonoooppopqqqqqqqppopppqqqpppppppppppppppooopon.lnopppoooonnnnooo
(PID.TID 0000.0001)      7 ooooooooooopponnnooooooonnnnnonnooooooooopppppppoooooooooopppppppppoopqnnmnoooonnnonnnnnno
(PID.TID 0000.0001)      6 oooonnoonnnnooooooooooooonnnnnnnnnnnnnnnnoooopppooooooooooooooppppppppppoooooooonnnnnmnnnn
(PID.TID 0000.0001)      5 oooonnnnnnnnnnnnnnnnnoooooonnnnnnonnnnnnnnnoooooooooooonnnnnnooooooopoooonoooonnnnnnnooooo
(PID.TID 0000.0001)      4 oooonnnooonnnnnnnnnnnnnnoooooonnnooooonnnooooooooppponnnnmmmnnnnmnnoonnnnn..nnnooooooooooo
(PID.TID 0000.0001)      3 ooonnnnnnn............................nnoooooonnooooonnnnnnnoonnnnnnnnmmm..ooopooooooooooo
(PID.TID 0000.0001)      2 ..........................................pppooooonnnnnnoooppppo..nnnn.....qqqpppoooooo...
(PID.TID 0000.0001)      1 ..........................................................................................
(PID.TID 0000.0001) // =======================================================
(PID.TID 0000.0001) // END OF FIELD                                          =
(PID.TID 0000.0001) // =======================================================
(PID.TID 0000.0001) 
(PID.TID 0000.0001) Start initial hydrostatic pressure computation
(PID.TID 0000.0001) Pressure is predetermined for buoyancyRelation OCEANIC
(PID.TID 0000.0001) 
(PID.TID 0000.0001)  MDSREADFIELD: opening file: xx_theta.0000000000.001.001.data
(PID.TID 0000.0001)  MDSREADFIELD: opening file: xx_salt.0000000000.001.001.data
(PID.TID 0000.0001)  MDSREADFIELD: opening file: xx_diffkr.0000000000.001.001.data
(PID.TID 0000.0001)  MDSREADFIELD: opening global file: trenberth_taux.bin
(PID.TID 0000.0001)  MDSREADFIELD: opening global file: trenberth_tauy.bin
(PID.TID 0000.0001)  MDSREADFIELD: opening global file: ncep_qnet.bin
(PID.TID 0000.0001)  MDSREADFIELD: opening global file: lev_sst.bin
(PID.TID 0000.0001)  MDSREADFIELD: opening global file: lev_sss.bin
(PID.TID 0000.0001) // =======================================================
(PID.TID 0000.0001) // Model current state
(PID.TID 0000.0001) // =======================================================
(PID.TID 0000.0001) 
(PID.TID 0000.0001) // =======================================================
(PID.TID 0000.0001) // Begin MONITOR dynamic field statistics
(PID.TID 0000.0001) // =======================================================
(PID.TID 0000.0001) %MON time_tsnumber                =                     0
(PID.TID 0000.0001) %MON time_secondsf                =   0.0000000000000E+00
(PID.TID 0000.0001) %MON dynstat_eta_max              =   0.0000000000000E+00
(PID.TID 0000.0001) %MON dynstat_eta_min              =   0.0000000000000E+00
(PID.TID 0000.0001) %MON dynstat_eta_mean             =   0.0000000000000E+00
(PID.TID 0000.0001) %MON dynstat_eta_sd               =   0.0000000000000E+00
(PID.TID 0000.0001) %MON dynstat_eta_del2             =   0.0000000000000E+00
(PID.TID 0000.0001) %MON dynstat_uvel_max             =   0.0000000000000E+00
(PID.TID 0000.0001) %MON dynstat_uvel_min             =   0.0000000000000E+00
(PID.TID 0000.0001) %MON dynstat_uvel_mean            =   0.0000000000000E+00
(PID.TID 0000.0001) %MON dynstat_uvel_sd              =   0.0000000000000E+00
(PID.TID 0000.0001) %MON dynstat_uvel_del2            =   0.0000000000000E+00
(PID.TID 0000.0001) %MON dynstat_vvel_max             =   0.0000000000000E+00
(PID.TID 0000.0001) %MON dynstat_vvel_min             =   0.0000000000000E+00
(PID.TID 0000.0001) %MON dynstat_vvel_mean            =   0.0000000000000E+00
(PID.TID 0000.0001) %MON dynstat_vvel_sd              =   0.0000000000000E+00
(PID.TID 0000.0001) %MON dynstat_vvel_del2            =   0.0000000000000E+00
(PID.TID 0000.0001) %MON dynstat_wvel_max             =   0.0000000000000E+00
(PID.TID 0000.0001) %MON dynstat_wvel_min             =   0.0000000000000E+00
(PID.TID 0000.0001) %MON dynstat_wvel_mean            =   0.0000000000000E+00
(PID.TID 0000.0001) %MON dynstat_wvel_sd              =   0.0000000000000E+00
(PID.TID 0000.0001) %MON dynstat_wvel_del2            =   0.0000000000000E+00
(PID.TID 0000.0001) %MON dynstat_theta_max            =   2.9733388900757E+01
(PID.TID 0000.0001) %MON dynstat_theta_min            =  -1.9000000000000E+00
(PID.TID 0000.0001) %MON dynstat_theta_mean           =   3.6197074460104E+00
(PID.TID 0000.0001) %MON dynstat_theta_sd             =   4.4174614692895E+00
(PID.TID 0000.0001) %MON dynstat_theta_del2           =   1.5097284706624E-01
(PID.TID 0000.0001) %MON dynstat_salt_max             =   3.7475627899170E+01
(PID.TID 0000.0001) %MON dynstat_salt_min             =   2.9752769470215E+01
(PID.TID 0000.0001) %MON dynstat_salt_mean            =   3.4718006161475E+01
(PID.TID 0000.0001) %MON dynstat_salt_sd              =   2.9628819587990E-01
(PID.TID 0000.0001) %MON dynstat_salt_del2            =   2.6251884861846E-02
(PID.TID 0000.0001) %MON advcfl_uvel_max              =   0.0000000000000E+00
(PID.TID 0000.0001) %MON advcfl_vvel_max              =   0.0000000000000E+00
(PID.TID 0000.0001) %MON advcfl_wvel_max              =   0.0000000000000E+00
(PID.TID 0000.0001) %MON advcfl_W_hf_max              =   0.0000000000000E+00
(PID.TID 0000.0001) %MON pe_b_mean                    =   0.0000000000000E+00
(PID.TID 0000.0001) %MON ke_max                       =   0.0000000000000E+00
(PID.TID 0000.0001) %MON ke_mean                      =   0.0000000000000E+00
(PID.TID 0000.0001) %MON ke_vol                       =   1.3226782436723E+18
(PID.TID 0000.0001) %MON vort_r_min                   =   0.0000000000000E+00
(PID.TID 0000.0001) %MON vort_r_max                   =   0.0000000000000E+00
(PID.TID 0000.0001) %MON vort_a_mean                  =  -2.5205769728595E-05
(PID.TID 0000.0001) %MON vort_a_sd                    =   7.3403301351718E-05
(PID.TID 0000.0001) %MON vort_p_mean                  =  -3.1758669979758E-05
(PID.TID 0000.0001) %MON vort_p_sd                    =   1.3126616755304E-04
(PID.TID 0000.0001) %MON surfExpan_theta_mean         =   0.0000000000000E+00
(PID.TID 0000.0001) %MON surfExpan_salt_mean          =   0.0000000000000E+00
(PID.TID 0000.0001) // =======================================================
(PID.TID 0000.0001) // End MONITOR dynamic field statistics
(PID.TID 0000.0001) // =======================================================
 S/R EXTERNAL_FIELDS_LOAD: Reading new data  0. 0
(PID.TID 0000.0001)  MDSREADFIELD: opening global file: trenberth_taux.bin
(PID.TID 0000.0001)  MDSREADFIELD: opening global file: trenberth_taux.bin
(PID.TID 0000.0001)  MDSREADFIELD: opening global file: trenberth_tauy.bin
(PID.TID 0000.0001)  MDSREADFIELD: opening global file: trenberth_tauy.bin
(PID.TID 0000.0001)  MDSREADFIELD: opening global file: ncep_qnet.bin
(PID.TID 0000.0001)  MDSREADFIELD: opening global file: ncep_qnet.bin
(PID.TID 0000.0001)  MDSREADFIELD: opening global file: lev_sst.bin
(PID.TID 0000.0001)  MDSREADFIELD: opening global file: lev_sst.bin
(PID.TID 0000.0001)  MDSREADFIELD: opening global file: lev_sss.bin
(PID.TID 0000.0001)  MDSREADFIELD: opening global file: lev_sss.bin
time,SST,SSS,fu,fv,Q,E-P,i0,i1,a,b =   0.0000E+00  5.3151E-02  3.4364E+01 -4.0500E-02 -6.3753E-02  2.6510E+02  0.0000E+00    12     1  5.0000E-01  5.0000E-01
time,fu0,fu1,fu =   0.0000E+00 -4.5368E-02 -3.5633E-02 -4.0500E-02  5.0000E-01  5.0000E-01
(PID.TID 0000.0001)  MDSREADFIELD: opening file: xx_tauu.0000000000.001.001.data
(PID.TID 0000.0001)  MDSREADFIELD: opening file: xx_tauv.0000000000.001.001.data
(PID.TID 0000.0001)  MDSREADFIELD: opening file: xx_sflux.0000000000.001.001.data
(PID.TID 0000.0001)  MDSREADFIELD: opening file: xx_hflux.0000000000.001.001.data
 cg2d: Sum(rhs),rhsMax =  -5.55111512312578E-17  2.51126027825716E+00
(PID.TID 0000.0001)                    cg2d_init_res =    6.25921683269405E+00
(PID.TID 0000.0001)                       cg2d_iters =    26
(PID.TID 0000.0001)                         cg2d_res =    4.96600240993663E-14
(PID.TID 0000.0001) // =======================================================
(PID.TID 0000.0001) // Begin MONITOR dynamic field statistics
(PID.TID 0000.0001) // =======================================================
(PID.TID 0000.0001) %MON time_tsnumber                =                     1
(PID.TID 0000.0001) %MON time_secondsf                =   4.3200000000000E+04
(PID.TID 0000.0001) %MON dynstat_eta_max              =   1.7542736336611E-01
(PID.TID 0000.0001) %MON dynstat_eta_min              =  -1.1671969011691E-01
(PID.TID 0000.0001) %MON dynstat_eta_mean             =  -4.3464651220670E-19
(PID.TID 0000.0001) %MON dynstat_eta_sd               =   2.6179446394789E-02
(PID.TID 0000.0001) %MON dynstat_eta_del2             =   1.1613847622555E-02
(PID.TID 0000.0001) %MON dynstat_uvel_max             =   8.0529522933638E-03
(PID.TID 0000.0001) %MON dynstat_uvel_min             =  -7.6333376275251E-03
(PID.TID 0000.0001) %MON dynstat_uvel_mean            =  -1.5724922630402E-04
(PID.TID 0000.0001) %MON dynstat_uvel_sd              =   1.2330586072580E-03
(PID.TID 0000.0001) %MON dynstat_uvel_del2            =   4.1962589024355E-04
(PID.TID 0000.0001) %MON dynstat_vvel_max             =   1.8131688035097E-02
(PID.TID 0000.0001) %MON dynstat_vvel_min             =  -1.1104627631651E-02
(PID.TID 0000.0001) %MON dynstat_vvel_mean            =   9.0141409860342E-04
(PID.TID 0000.0001) %MON dynstat_vvel_sd              =   3.3812266169499E-03
(PID.TID 0000.0001) %MON dynstat_vvel_del2            =   5.2106640143681E-04
(PID.TID 0000.0001) %MON dynstat_wvel_max             =   1.5731556153468E-04
(PID.TID 0000.0001) %MON dynstat_wvel_min             =  -1.0461247926497E-04
(PID.TID 0000.0001) %MON dynstat_wvel_mean            =  -8.2297836100559E-23
(PID.TID 0000.0001) %MON dynstat_wvel_sd              =   1.6753162006667E-05
(PID.TID 0000.0001) %MON dynstat_wvel_del2            =   8.7872730159453E-06
(PID.TID 0000.0001) %MON dynstat_theta_max            =   2.9714151773427E+01
(PID.TID 0000.0001) %MON dynstat_theta_min            =  -1.9006688327720E+00
(PID.TID 0000.0001) %MON dynstat_theta_mean           =   3.6192176415586E+00
(PID.TID 0000.0001) %MON dynstat_theta_sd             =   4.4160464192266E+00
(PID.TID 0000.0001) %MON dynstat_theta_del2           =   1.5011441107896E-01
(PID.TID 0000.0001) %MON dynstat_salt_max             =   3.7470483222390E+01
(PID.TID 0000.0001) %MON dynstat_salt_min             =   2.9754996047611E+01
(PID.TID 0000.0001) %MON dynstat_salt_mean            =   3.4717966947509E+01
(PID.TID 0000.0001) %MON dynstat_salt_sd              =   2.9615546782055E-01
(PID.TID 0000.0001) %MON dynstat_salt_del2            =   2.6383451177234E-02
(PID.TID 0000.0001) %MON advcfl_uvel_max              =   2.7847836032001E-03
(PID.TID 0000.0001) %MON advcfl_vvel_max              =   1.7613480939523E-03
(PID.TID 0000.0001) %MON advcfl_wvel_max              =   2.5261540324720E-01
(PID.TID 0000.0001) %MON advcfl_W_hf_max              =   2.5633166678463E-01
(PID.TID 0000.0001) %MON pe_b_mean                    =   8.7700509641375E-07
(PID.TID 0000.0001) %MON ke_max                       =   1.2189599970725E-04
(PID.TID 0000.0001) %MON ke_mean                      =   6.1994154109766E-06
(PID.TID 0000.0001) %MON ke_vol                       =   1.3226782436723E+18
(PID.TID 0000.0001) %MON vort_r_min                   =  -6.1330304033535E-08
(PID.TID 0000.0001) %MON vort_r_max                   =   6.1580160380308E-08
(PID.TID 0000.0001) %MON vort_a_mean                  =  -2.5205769360242E-05
(PID.TID 0000.0001) %MON vort_a_sd                    =   7.3403259512188E-05
(PID.TID 0000.0001) %MON vort_p_mean                  =  -3.1758669515642E-05
(PID.TID 0000.0001) %MON vort_p_sd                    =   1.3126622607350E-04
(PID.TID 0000.0001) %MON surfExpan_theta_mean         =   4.5922983860701E-05
(PID.TID 0000.0001) %MON surfExpan_salt_mean          =   3.4898921780842E-06
(PID.TID 0000.0001) // =======================================================
(PID.TID 0000.0001) // End MONITOR dynamic field statistics
(PID.TID 0000.0001) // =======================================================
time,SST,SSS,fu,fv,Q,E-P,i0,i1,a,b =   4.3200E+04  8.3327E-02  3.4375E+01 -4.0338E-02 -6.3536E-02  2.6512E+02  0.0000E+00    12     1  5.1667E-01  4.8333E-01
time,fu0,fu1,fu =   4.3200E+04 -4.5368E-02 -3.5633E-02 -4.0338E-02  5.1667E-01  4.8333E-01
 cg2d: Sum(rhs),rhsMax =   4.17374468320020E-14  4.88048471044202E+00
(PID.TID 0000.0001)                    cg2d_init_res =    3.38567972553371E+00
(PID.TID 0000.0001)                       cg2d_iters =    26
(PID.TID 0000.0001)                         cg2d_res =    3.27664072153189E-14
(PID.TID 0000.0001) // =======================================================
(PID.TID 0000.0001) // Begin MONITOR dynamic field statistics
(PID.TID 0000.0001) // =======================================================
(PID.TID 0000.0001) %MON time_tsnumber                =                     2
(PID.TID 0000.0001) %MON time_secondsf                =   8.6400000000000E+04
(PID.TID 0000.0001) %MON dynstat_eta_max              =   3.6642075205993E-01
(PID.TID 0000.0001) %MON dynstat_eta_min              =  -2.5542812926271E-01
(PID.TID 0000.0001) %MON dynstat_eta_mean             =   9.7189882957791E-18
(PID.TID 0000.0001) %MON dynstat_eta_sd               =   5.9802418879179E-02
(PID.TID 0000.0001) %MON dynstat_eta_del2             =   2.2181091653795E-02
(PID.TID 0000.0001) %MON dynstat_uvel_max             =   1.8742617413914E-02
(PID.TID 0000.0001) %MON dynstat_uvel_min             =  -1.7008757434475E-02
(PID.TID 0000.0001) %MON dynstat_uvel_mean            =  -6.1812255887792E-04
(PID.TID 0000.0001) %MON dynstat_uvel_sd              =   2.0365423178968E-03
(PID.TID 0000.0001) %MON dynstat_uvel_del2            =   7.7147794369097E-04
(PID.TID 0000.0001) %MON dynstat_vvel_max             =   3.3070086705510E-02
(PID.TID 0000.0001) %MON dynstat_vvel_min             =  -1.7823710906559E-02
(PID.TID 0000.0001) %MON dynstat_vvel_mean            =   1.7749223159515E-03
(PID.TID 0000.0001) %MON dynstat_vvel_sd              =   6.2103816700084E-03
(PID.TID 0000.0001) %MON dynstat_vvel_del2            =   9.3438719184108E-04
(PID.TID 0000.0001) %MON dynstat_wvel_max             =   2.0185420699784E-04
(PID.TID 0000.0001) %MON dynstat_wvel_min             =  -1.4619082137608E-04
(PID.TID 0000.0001) %MON dynstat_wvel_mean            =   2.5104611051346E-22
(PID.TID 0000.0001) %MON dynstat_wvel_sd              =   2.3946387274177E-05
(PID.TID 0000.0001) %MON dynstat_wvel_del2            =   9.7964863428843E-06
(PID.TID 0000.0001) %MON dynstat_theta_max            =   2.9695250203754E+01
(PID.TID 0000.0001) %MON dynstat_theta_min            =  -1.9046704676166E+00
(PID.TID 0000.0001) %MON dynstat_theta_mean           =   3.6180451399717E+00
(PID.TID 0000.0001) %MON dynstat_theta_sd             =   4.4133958755214E+00
(PID.TID 0000.0001) %MON dynstat_theta_del2           =   1.4858768115157E-01
(PID.TID 0000.0001) %MON dynstat_salt_max             =   3.7465922104459E+01
(PID.TID 0000.0001) %MON dynstat_salt_min             =   2.9758319089739E+01
(PID.TID 0000.0001) %MON dynstat_salt_mean            =   3.4717870437882E+01
(PID.TID 0000.0001) %MON dynstat_salt_sd              =   2.9608252733631E-01
(PID.TID 0000.0001) %MON dynstat_salt_del2            =   2.6460099446304E-02
(PID.TID 0000.0001) %MON advcfl_uvel_max              =   5.1989943937369E-03
(PID.TID 0000.0001) %MON advcfl_vvel_max              =   3.2124937332276E-03
(PID.TID 0000.0001) %MON advcfl_wvel_max              =   2.7503047971909E-01
(PID.TID 0000.0001) %MON advcfl_W_hf_max              =   2.8566390214195E-01
(PID.TID 0000.0001) %MON pe_b_mean                    =   4.5763444093080E-06
(PID.TID 0000.0001) %MON ke_max                       =   4.0262905102485E-04
(PID.TID 0000.0001) %MON ke_mean                      =   2.0787430101370E-05
(PID.TID 0000.0001) %MON ke_vol                       =   1.3226782436723E+18
(PID.TID 0000.0001) %MON vort_r_min                   =  -1.0591158400991E-07
(PID.TID 0000.0001) %MON vort_r_max                   =   1.2116719173831E-07
(PID.TID 0000.0001) %MON vort_a_mean                  =  -2.5205769260570E-05
(PID.TID 0000.0001) %MON vort_a_sd                    =   7.3403162844145E-05
(PID.TID 0000.0001) %MON vort_p_mean                  =  -3.1758669390057E-05
(PID.TID 0000.0001) %MON vort_p_sd                    =   1.3126606566452E-04
(PID.TID 0000.0001) %MON surfExpan_theta_mean         =   8.3423183018405E-05
(PID.TID 0000.0001) %MON surfExpan_salt_mean          =   6.6892885899748E-06
(PID.TID 0000.0001) // =======================================================
(PID.TID 0000.0001) // End MONITOR dynamic field statistics
(PID.TID 0000.0001) // =======================================================
time,SST,SSS,fu,fv,Q,E-P,i0,i1,a,b =   8.6400E+04  1.1350E-01  3.4387E+01 -4.0176E-02 -6.3320E-02  2.6514E+02  0.0000E+00    12     1  5.3333E-01  4.6667E-01
time,fu0,fu1,fu =   8.6400E+04 -4.5368E-02 -3.5633E-02 -4.0176E-02  5.3333E-01  4.6667E-01
 cg2d: Sum(rhs),rhsMax =  -5.05637198777720E-14  6.23803641968524E+00
(PID.TID 0000.0001)                    cg2d_init_res =    2.21964829403560E+00
(PID.TID 0000.0001)                       cg2d_iters =    26
(PID.TID 0000.0001)                         cg2d_res =    2.85735401479587E-14
(PID.TID 0000.0001) // =======================================================
(PID.TID 0000.0001) // Begin MONITOR dynamic field statistics
(PID.TID 0000.0001) // =======================================================
(PID.TID 0000.0001) %MON time_tsnumber                =                     3
(PID.TID 0000.0001) %MON time_secondsf                =   1.2960000000000E+05
(PID.TID 0000.0001) %MON dynstat_eta_max              =   5.0447743753974E-01
(PID.TID 0000.0001) %MON dynstat_eta_min              =  -3.8122928082702E-01
(PID.TID 0000.0001) %MON dynstat_eta_mean             =  -1.9369814940977E-17
(PID.TID 0000.0001) %MON dynstat_eta_sd               =   9.2514850090984E-02
(PID.TID 0000.0001) %MON dynstat_eta_del2             =   2.7904919178121E-02
(PID.TID 0000.0001) %MON dynstat_uvel_max             =   3.0748714608840E-02
(PID.TID 0000.0001) %MON dynstat_uvel_min             =  -2.9887612427394E-02
(PID.TID 0000.0001) %MON dynstat_uvel_mean            =  -1.2347562867115E-03
(PID.TID 0000.0001) %MON dynstat_uvel_sd              =   2.8304409464782E-03
(PID.TID 0000.0001) %MON dynstat_uvel_del2            =   1.1349445917453E-03
(PID.TID 0000.0001) %MON dynstat_vvel_max             =   4.3827495831327E-02
(PID.TID 0000.0001) %MON dynstat_vvel_min             =  -2.5545918428162E-02
(PID.TID 0000.0001) %MON dynstat_vvel_mean            =   2.5728334319290E-03
(PID.TID 0000.0001) %MON dynstat_vvel_sd              =   8.5401776487520E-03
(PID.TID 0000.0001) %MON dynstat_vvel_del2            =   1.3456991298120E-03
(PID.TID 0000.0001) %MON dynstat_wvel_max             =   1.9966320236139E-04
(PID.TID 0000.0001) %MON dynstat_wvel_min             =  -1.7215302213926E-04
(PID.TID 0000.0001) %MON dynstat_wvel_mean            =   4.0411932766688E-22
(PID.TID 0000.0001) %MON dynstat_wvel_sd              =   2.6852357529285E-05
(PID.TID 0000.0001) %MON dynstat_wvel_del2            =   8.6463594999054E-06
(PID.TID 0000.0001) %MON dynstat_theta_max            =   2.9693876913640E+01
(PID.TID 0000.0001) %MON dynstat_theta_min            =  -1.9165848424514E+00
(PID.TID 0000.0001) %MON dynstat_theta_mean           =   3.6166050092003E+00
(PID.TID 0000.0001) %MON dynstat_theta_sd             =   4.4102951302289E+00
(PID.TID 0000.0001) %MON dynstat_theta_del2           =   1.4734398468369E-01
(PID.TID 0000.0001) %MON dynstat_salt_max             =   3.7461480469125E+01
(PID.TID 0000.0001) %MON dynstat_salt_min             =   2.9762089295090E+01
(PID.TID 0000.0001) %MON dynstat_salt_mean            =   3.4717748756382E+01
(PID.TID 0000.0001) %MON dynstat_salt_sd              =   2.9607393341954E-01
(PID.TID 0000.0001) %MON dynstat_salt_del2            =   2.6366189994209E-02
(PID.TID 0000.0001) %MON advcfl_uvel_max              =   6.3252572287560E-03
(PID.TID 0000.0001) %MON advcfl_vvel_max              =   4.2574897657507E-03
(PID.TID 0000.0001) %MON advcfl_wvel_max              =   2.0873391282307E-01
(PID.TID 0000.0001) %MON advcfl_W_hf_max              =   2.1768957936022E-01
(PID.TID 0000.0001) %MON pe_b_mean                    =   1.0952268925269E-05
(PID.TID 0000.0001) %MON ke_max                       =   7.4676338471534E-04
(PID.TID 0000.0001) %MON ke_mean                      =   4.0047683805296E-05
(PID.TID 0000.0001) %MON ke_vol                       =   1.3226782436723E+18
(PID.TID 0000.0001) %MON vort_r_min                   =  -1.5301597332276E-07
(PID.TID 0000.0001) %MON vort_r_max                   =   1.7605569373591E-07
(PID.TID 0000.0001) %MON vort_a_mean                  =  -2.5205769243887E-05
(PID.TID 0000.0001) %MON vort_a_sd                    =   7.3403039694997E-05
(PID.TID 0000.0001) %MON vort_p_mean                  =  -3.1758669369038E-05
(PID.TID 0000.0001) %MON vort_p_sd                    =   1.3126579822867E-04
(PID.TID 0000.0001) %MON surfExpan_theta_mean         =   1.1255488508125E-04
(PID.TID 0000.0001) %MON surfExpan_salt_mean          =   9.2738972634891E-06
(PID.TID 0000.0001) // =======================================================
(PID.TID 0000.0001) // End MONITOR dynamic field statistics
(PID.TID 0000.0001) // =======================================================
time,SST,SSS,fu,fv,Q,E-P,i0,i1,a,b =   1.2960E+05  1.4368E-01  3.4399E+01 -4.0014E-02 -6.3103E-02  2.6516E+02  0.0000E+00    12     1  5.5000E-01  4.5000E-01
time,fu0,fu1,fu =   1.2960E+05 -4.5368E-02 -3.5633E-02 -4.0014E-02  5.5000E-01  4.5000E-01
 cg2d: Sum(rhs),rhsMax =   9.75955427584552E-15  6.79014299228627E+00
(PID.TID 0000.0001)                    cg2d_init_res =    1.84397147353484E+00
(PID.TID 0000.0001)                       cg2d_iters =    26
(PID.TID 0000.0001)                         cg2d_res =    2.55763755843202E-14
(PID.TID 0000.0001) // =======================================================
(PID.TID 0000.0001) // Begin MONITOR dynamic field statistics
(PID.TID 0000.0001) // =======================================================
(PID.TID 0000.0001) %MON time_tsnumber                =                     4
(PID.TID 0000.0001) %MON time_secondsf                =   1.7280000000000E+05
(PID.TID 0000.0001) %MON dynstat_eta_max              =   5.8744280224194E-01
(PID.TID 0000.0001) %MON dynstat_eta_min              =  -4.9922435058377E-01
(PID.TID 0000.0001) %MON dynstat_eta_mean             =   1.5755316052004E-17
(PID.TID 0000.0001) %MON dynstat_eta_sd               =   1.2282110276248E-01
(PID.TID 0000.0001) %MON dynstat_eta_del2             =   2.9664530656852E-02
(PID.TID 0000.0001) %MON dynstat_uvel_max             =   4.3275845499344E-02
(PID.TID 0000.0001) %MON dynstat_uvel_min             =  -4.2470479735484E-02
(PID.TID 0000.0001) %MON dynstat_uvel_mean            =  -1.9743370585418E-03
(PID.TID 0000.0001) %MON dynstat_uvel_sd              =   3.7660684371575E-03
(PID.TID 0000.0001) %MON dynstat_uvel_del2            =   1.4942874220186E-03
(PID.TID 0000.0001) %MON dynstat_vvel_max             =   5.0865239670422E-02
(PID.TID 0000.0001) %MON dynstat_vvel_min             =  -3.7807952772412E-02
(PID.TID 0000.0001) %MON dynstat_vvel_mean            =   3.2826065779812E-03
(PID.TID 0000.0001) %MON dynstat_vvel_sd              =   1.0483838911630E-02
(PID.TID 0000.0001) %MON dynstat_vvel_del2            =   1.7640691812943E-03
(PID.TID 0000.0001) %MON dynstat_wvel_max             =   1.9909629511443E-04
(PID.TID 0000.0001) %MON dynstat_wvel_min             =  -2.0243042163513E-04
(PID.TID 0000.0001) %MON dynstat_wvel_mean            =   6.1500175504512E-22
(PID.TID 0000.0001) %MON dynstat_wvel_sd              =   2.8700892768758E-05
(PID.TID 0000.0001) %MON dynstat_wvel_del2            =   8.2544056022787E-06
(PID.TID 0000.0001) %MON dynstat_theta_max            =   2.9706174523039E+01
(PID.TID 0000.0001) %MON dynstat_theta_min            =  -1.9336756604056E+00
(PID.TID 0000.0001) %MON dynstat_theta_mean           =   3.6149643162263E+00
(PID.TID 0000.0001) %MON dynstat_theta_sd             =   4.4067801039214E+00
(PID.TID 0000.0001) %MON dynstat_theta_del2           =   1.4653318985192E-01
(PID.TID 0000.0001) %MON dynstat_salt_max             =   3.7457127798715E+01
(PID.TID 0000.0001) %MON dynstat_salt_min             =   2.9766149544949E+01
(PID.TID 0000.0001) %MON dynstat_salt_mean            =   3.4717609911402E+01
(PID.TID 0000.0001) %MON dynstat_salt_sd              =   2.9605659687640E-01
(PID.TID 0000.0001) %MON dynstat_salt_del2            =   2.6253513628752E-02
(PID.TID 0000.0001) %MON advcfl_uvel_max              =   8.9567892640281E-03
(PID.TID 0000.0001) %MON advcfl_vvel_max              =   4.9411501437983E-03
(PID.TID 0000.0001) %MON advcfl_wvel_max              =   2.3259770991650E-01
(PID.TID 0000.0001) %MON advcfl_W_hf_max              =   2.3267734139935E-01
(PID.TID 0000.0001) %MON pe_b_mean                    =   1.9303105532171E-05
(PID.TID 0000.0001) %MON ke_max                       =   1.1227686638174E-03
(PID.TID 0000.0001) %MON ke_mean                      =   6.2396007362369E-05
(PID.TID 0000.0001) %MON ke_vol                       =   1.3226782436723E+18
(PID.TID 0000.0001) %MON vort_r_min                   =  -2.0273078629522E-07
(PID.TID 0000.0001) %MON vort_r_max                   =   2.2565138486031E-07
(PID.TID 0000.0001) %MON vort_a_mean                  =  -2.5205769220858E-05
(PID.TID 0000.0001) %MON vort_a_sd                    =   7.3402896496073E-05
(PID.TID 0000.0001) %MON vort_p_mean                  =  -3.1758669340022E-05
(PID.TID 0000.0001) %MON vort_p_sd                    =   1.3126543256169E-04
(PID.TID 0000.0001) %MON surfExpan_theta_mean         =   1.3465269543653E-04
(PID.TID 0000.0001) %MON surfExpan_salt_mean          =   1.1193488381616E-05
(PID.TID 0000.0001) // =======================================================
(PID.TID 0000.0001) // End MONITOR dynamic field statistics
(PID.TID 0000.0001) // =======================================================
time,SST,SSS,fu,fv,Q,E-P,i0,i1,a,b =   1.7280E+05  1.7385E-01  3.4410E+01 -3.9851E-02 -6.2886E-02  2.6519E+02  0.0000E+00    12     1  5.6667E-01  4.3333E-01
time,fu0,fu1,fu =   1.7280E+05 -4.5368E-02 -3.5633E-02 -3.9851E-02  5.6667E-01  4.3333E-01
 cg2d: Sum(rhs),rhsMax =  -8.34089741719168E-14  6.92874107573634E+00
(PID.TID 0000.0001)                    cg2d_init_res =    1.75169686790245E+00
(PID.TID 0000.0001)                       cg2d_iters =    26
(PID.TID 0000.0001)                         cg2d_res =    2.59803632267789E-14
(PID.TID 0000.0001) // =======================================================
(PID.TID 0000.0001) // Begin MONITOR dynamic field statistics
(PID.TID 0000.0001) // =======================================================
(PID.TID 0000.0001) %MON time_tsnumber                =                     5
(PID.TID 0000.0001) %MON time_secondsf                =   2.1600000000000E+05
(PID.TID 0000.0001) %MON dynstat_eta_max              =   6.3271088691646E-01
(PID.TID 0000.0001) %MON dynstat_eta_min              =  -5.7992542122570E-01
(PID.TID 0000.0001) %MON dynstat_eta_mean             =  -2.3481547467266E-17
(PID.TID 0000.0001) %MON dynstat_eta_sd               =   1.5134273410061E-01
(PID.TID 0000.0001) %MON dynstat_eta_del2             =   2.9337516579526E-02
(PID.TID 0000.0001) %MON dynstat_uvel_max             =   5.5843085399552E-02
(PID.TID 0000.0001) %MON dynstat_uvel_min             =  -5.3444186272245E-02
(PID.TID 0000.0001) %MON dynstat_uvel_mean            =  -2.8074347630935E-03
(PID.TID 0000.0001) %MON dynstat_uvel_sd              =   4.8414580647191E-03
(PID.TID 0000.0001) %MON dynstat_uvel_del2            =   1.8312469530070E-03
(PID.TID 0000.0001) %MON dynstat_vvel_max             =   5.7021703108535E-02
(PID.TID 0000.0001) %MON dynstat_vvel_min             =  -4.9872134606667E-02
(PID.TID 0000.0001) %MON dynstat_vvel_mean            =   3.8899429863750E-03
(PID.TID 0000.0001) %MON dynstat_vvel_sd              =   1.2085738126917E-02
(PID.TID 0000.0001) %MON dynstat_vvel_del2            =   2.1605252738584E-03
(PID.TID 0000.0001) %MON dynstat_wvel_max             =   2.2883634370388E-04
(PID.TID 0000.0001) %MON dynstat_wvel_min             =  -2.3869685302406E-04
(PID.TID 0000.0001) %MON dynstat_wvel_mean            =   1.1063842922307E-21
(PID.TID 0000.0001) %MON dynstat_wvel_sd              =   3.0511637027108E-05
(PID.TID 0000.0001) %MON dynstat_wvel_del2            =   8.9710498743408E-06
(PID.TID 0000.0001) %MON dynstat_theta_max            =   2.9720537578616E+01
(PID.TID 0000.0001) %MON dynstat_theta_min            =  -1.9541377379647E+00
(PID.TID 0000.0001) %MON dynstat_theta_mean           =   3.6131851665253E+00
(PID.TID 0000.0001) %MON dynstat_theta_sd             =   4.4029374611090E+00
(PID.TID 0000.0001) %MON dynstat_theta_del2           =   1.4585418839759E-01
(PID.TID 0000.0001) %MON dynstat_salt_max             =   3.7452892733702E+01
(PID.TID 0000.0001) %MON dynstat_salt_min             =   2.9770341301067E+01
(PID.TID 0000.0001) %MON dynstat_salt_mean            =   3.4717460594627E+01
(PID.TID 0000.0001) %MON dynstat_salt_sd              =   2.9603661179550E-01
(PID.TID 0000.0001) %MON dynstat_salt_del2            =   2.6165231649157E-02
(PID.TID 0000.0001) %MON advcfl_uvel_max              =   1.1746279775373E-02
(PID.TID 0000.0001) %MON advcfl_vvel_max              =   5.5392011979096E-03
(PID.TID 0000.0001) %MON advcfl_wvel_max              =   2.4450384445045E-01
(PID.TID 0000.0001) %MON advcfl_W_hf_max              =   2.4787864229426E-01
(PID.TID 0000.0001) %MON pe_b_mean                    =   2.9309226098746E-05
(PID.TID 0000.0001) %MON ke_max                       =   1.7055394127414E-03
(PID.TID 0000.0001) %MON ke_mean                      =   8.6598064675680E-05
(PID.TID 0000.0001) %MON ke_vol                       =   1.3226782436723E+18
(PID.TID 0000.0001) %MON vort_r_min                   =  -2.4767825566004E-07
(PID.TID 0000.0001) %MON vort_r_max                   =   2.6903270051228E-07
(PID.TID 0000.0001) %MON vort_a_mean                  =  -2.5205769190759E-05
(PID.TID 0000.0001) %MON vort_a_sd                    =   7.3402738153704E-05
(PID.TID 0000.0001) %MON vort_p_mean                  =  -3.1758669302097E-05
(PID.TID 0000.0001) %MON vort_p_sd                    =   1.3126497682640E-04
(PID.TID 0000.0001) %MON surfExpan_theta_mean         =   1.5065600470113E-04
(PID.TID 0000.0001) %MON surfExpan_salt_mean          =   1.2494062556054E-05
(PID.TID 0000.0001) // =======================================================
(PID.TID 0000.0001) // End MONITOR dynamic field statistics
(PID.TID 0000.0001) // =======================================================
time,SST,SSS,fu,fv,Q,E-P,i0,i1,a,b =   2.1600E+05  2.0403E-01  3.4422E+01 -3.9689E-02 -6.2670E-02  2.6521E+02  0.0000E+00    12     1  5.8333E-01  4.1667E-01
time,fu0,fu1,fu =   2.1600E+05 -4.5368E-02 -3.5633E-02 -3.9689E-02  5.8333E-01  4.1667E-01
 cg2d: Sum(rhs),rhsMax =   6.63861327021564E-14  6.89395558172306E+00
(PID.TID 0000.0001)                    cg2d_init_res =    1.71510084373775E+00
(PID.TID 0000.0001)                       cg2d_iters =    26
(PID.TID 0000.0001)                         cg2d_res =    2.74380062715640E-14
(PID.TID 0000.0001) // =======================================================
(PID.TID 0000.0001) // Begin MONITOR dynamic field statistics
(PID.TID 0000.0001) // =======================================================
(PID.TID 0000.0001) %MON time_tsnumber                =                     6
(PID.TID 0000.0001) %MON time_secondsf                =   2.5920000000000E+05
(PID.TID 0000.0001) %MON dynstat_eta_max              =   7.1959482660992E-01
(PID.TID 0000.0001) %MON dynstat_eta_min              =  -6.4368134580525E-01
(PID.TID 0000.0001) %MON dynstat_eta_mean             =  -4.0531855097718E-17
(PID.TID 0000.0001) %MON dynstat_eta_sd               =   1.7871417150503E-01
(PID.TID 0000.0001) %MON dynstat_eta_del2             =   2.8270511441080E-02
(PID.TID 0000.0001) %MON dynstat_uvel_max             =   6.8176134256858E-02
(PID.TID 0000.0001) %MON dynstat_uvel_min             =  -6.2618554241697E-02
(PID.TID 0000.0001) %MON dynstat_uvel_mean            =  -3.7032813397938E-03
(PID.TID 0000.0001) %MON dynstat_uvel_sd              =   6.0227452215436E-03
(PID.TID 0000.0001) %MON dynstat_uvel_del2            =   2.1457379728744E-03
(PID.TID 0000.0001) %MON dynstat_vvel_max             =   6.8809080029910E-02
(PID.TID 0000.0001) %MON dynstat_vvel_min             =  -6.1181399354547E-02
(PID.TID 0000.0001) %MON dynstat_vvel_mean            =   4.3839320049670E-03
(PID.TID 0000.0001) %MON dynstat_vvel_sd              =   1.3369761698070E-02
(PID.TID 0000.0001) %MON dynstat_vvel_del2            =   2.5217186207033E-03
(PID.TID 0000.0001) %MON dynstat_wvel_max             =   2.5627514747824E-04
(PID.TID 0000.0001) %MON dynstat_wvel_min             =  -2.7194470551625E-04
(PID.TID 0000.0001) %MON dynstat_wvel_mean            =  -1.3616665488896E-21
(PID.TID 0000.0001) %MON dynstat_wvel_sd              =   3.2463263127225E-05
(PID.TID 0000.0001) %MON dynstat_wvel_del2            =   1.0209422108353E-05
(PID.TID 0000.0001) %MON dynstat_theta_max            =   2.9726455071511E+01
(PID.TID 0000.0001) %MON dynstat_theta_min            =  -1.9756921638409E+00
(PID.TID 0000.0001) %MON dynstat_theta_mean           =   3.6113235106285E+00
(PID.TID 0000.0001) %MON dynstat_theta_sd             =   4.3988501924305E+00
(PID.TID 0000.0001) %MON dynstat_theta_del2           =   1.4510121997140E-01
(PID.TID 0000.0001) %MON dynstat_salt_max             =   3.7449510091548E+01
(PID.TID 0000.0001) %MON dynstat_salt_min             =   2.9774513629707E+01
(PID.TID 0000.0001) %MON dynstat_salt_mean            =   3.4717306355520E+01
(PID.TID 0000.0001) %MON dynstat_salt_sd              =   2.9601367288690E-01
(PID.TID 0000.0001) %MON dynstat_salt_del2            =   2.6080200167411E-02
(PID.TID 0000.0001) %MON advcfl_uvel_max              =   1.5051312198390E-02
(PID.TID 0000.0001) %MON advcfl_vvel_max              =   6.6842503424225E-03
(PID.TID 0000.0001) %MON advcfl_wvel_max              =   2.1502942959283E-01
(PID.TID 0000.0001) %MON advcfl_W_hf_max              =   2.2312935941223E-01
(PID.TID 0000.0001) %MON pe_b_mean                    =   4.0869486814828E-05
(PID.TID 0000.0001) %MON ke_max                       =   2.4665141762373E-03
(PID.TID 0000.0001) %MON ke_mean                      =   1.1158732994354E-04
(PID.TID 0000.0001) %MON ke_vol                       =   1.3226782436723E+18
(PID.TID 0000.0001) %MON vort_r_min                   =  -2.8619411441847E-07
(PID.TID 0000.0001) %MON vort_r_max                   =   3.0627229437995E-07
(PID.TID 0000.0001) %MON vort_a_mean                  =  -2.5205769176228E-05
(PID.TID 0000.0001) %MON vort_a_sd                    =   7.3402569514188E-05
(PID.TID 0000.0001) %MON vort_p_mean                  =  -3.1758669283789E-05
(PID.TID 0000.0001) %MON vort_p_sd                    =   1.3126444450668E-04
(PID.TID 0000.0001) %MON surfExpan_theta_mean         =   1.6129179800696E-04
(PID.TID 0000.0001) %MON surfExpan_salt_mean          =   1.3255561111482E-05
(PID.TID 0000.0001) // =======================================================
(PID.TID 0000.0001) // End MONITOR dynamic field statistics
(PID.TID 0000.0001) // =======================================================
time,SST,SSS,fu,fv,Q,E-P,i0,i1,a,b =   2.5920E+05  2.3421E-01  3.4434E+01 -3.9527E-02 -6.2453E-02  2.6523E+02  0.0000E+00    12     1  6.0000E-01  4.0000E-01
time,fu0,fu1,fu =   2.5920E+05 -4.5368E-02 -3.5633E-02 -3.9527E-02  6.0000E-01  4.0000E-01
 cg2d: Sum(rhs),rhsMax =   3.58593363336546E-14  7.15197465286573E+00
(PID.TID 0000.0001)                    cg2d_init_res =    1.59738162758851E+00
(PID.TID 0000.0001)                       cg2d_iters =    26
(PID.TID 0000.0001)                         cg2d_res =    2.62642021992129E-14
(PID.TID 0000.0001) // =======================================================
(PID.TID 0000.0001) // Begin MONITOR dynamic field statistics
(PID.TID 0000.0001) // =======================================================
(PID.TID 0000.0001) %MON time_tsnumber                =                     7
(PID.TID 0000.0001) %MON time_secondsf                =   3.0240000000000E+05
(PID.TID 0000.0001) %MON dynstat_eta_max              =   8.2241092333071E-01
(PID.TID 0000.0001) %MON dynstat_eta_min              =  -7.0122090179129E-01
(PID.TID 0000.0001) %MON dynstat_eta_mean             =  -2.4584107959440E-17
(PID.TID 0000.0001) %MON dynstat_eta_sd               =   2.0514322150012E-01
(PID.TID 0000.0001) %MON dynstat_eta_del2             =   2.7124795705525E-02
(PID.TID 0000.0001) %MON dynstat_uvel_max             =   8.0140737374691E-02
(PID.TID 0000.0001) %MON dynstat_uvel_min             =  -7.5133654501574E-02
(PID.TID 0000.0001) %MON dynstat_uvel_mean            =  -4.6308632051384E-03
(PID.TID 0000.0001) %MON dynstat_uvel_sd              =   7.2758121166637E-03
(PID.TID 0000.0001) %MON dynstat_uvel_del2            =   2.4440335004528E-03
(PID.TID 0000.0001) %MON dynstat_vvel_max             =   7.9433858079765E-02
(PID.TID 0000.0001) %MON dynstat_vvel_min             =  -7.2766938404395E-02
(PID.TID 0000.0001) %MON dynstat_vvel_mean            =   4.7577708396779E-03
(PID.TID 0000.0001) %MON dynstat_vvel_sd              =   1.4358570168098E-02
(PID.TID 0000.0001) %MON dynstat_vvel_del2            =   2.8496681209236E-03
(PID.TID 0000.0001) %MON dynstat_wvel_max             =   2.8110387828391E-04
(PID.TID 0000.0001) %MON dynstat_wvel_min             =  -3.0181171442847E-04
(PID.TID 0000.0001) %MON dynstat_wvel_mean            =  -1.2292580264975E-21
(PID.TID 0000.0001) %MON dynstat_wvel_sd              =   3.4463613508424E-05
(PID.TID 0000.0001) %MON dynstat_wvel_del2            =   1.1492159732496E-05
(PID.TID 0000.0001) %MON dynstat_theta_max            =   2.9720036485839E+01
(PID.TID 0000.0001) %MON dynstat_theta_min            =  -1.9960570530846E+00
(PID.TID 0000.0001) %MON dynstat_theta_mean           =   3.6094295046129E+00
(PID.TID 0000.0001) %MON dynstat_theta_sd             =   4.3945912072687E+00
(PID.TID 0000.0001) %MON dynstat_theta_del2           =   1.4421321687537E-01
(PID.TID 0000.0001) %MON dynstat_salt_max             =   3.7446951356462E+01
(PID.TID 0000.0001) %MON dynstat_salt_min             =   2.9778528273974E+01
(PID.TID 0000.0001) %MON dynstat_salt_mean            =   3.4717151911039E+01
(PID.TID 0000.0001) %MON dynstat_salt_sd              =   2.9598386102648E-01
(PID.TID 0000.0001) %MON dynstat_salt_del2            =   2.5992106372005E-02
(PID.TID 0000.0001) %MON advcfl_uvel_max              =   1.7764484416175E-02
(PID.TID 0000.0001) %MON advcfl_vvel_max              =   7.7163623294892E-03
(PID.TID 0000.0001) %MON advcfl_wvel_max              =   1.8338355823069E-01
(PID.TID 0000.0001) %MON advcfl_W_hf_max              =   1.8262143466140E-01
(PID.TID 0000.0001) %MON pe_b_mean                    =   5.3851219500940E-05
(PID.TID 0000.0001) %MON ke_max                       =   3.2883081749723E-03
(PID.TID 0000.0001) %MON ke_mean                      =   1.3651358088899E-04
(PID.TID 0000.0001) %MON ke_vol                       =   1.3226782436723E+18
(PID.TID 0000.0001) %MON vort_r_min                   =  -3.1772573175658E-07
(PID.TID 0000.0001) %MON vort_r_max                   =   3.3848955047906E-07
(PID.TID 0000.0001) %MON vort_a_mean                  =  -2.5205769190669E-05
(PID.TID 0000.0001) %MON vort_a_sd                    =   7.3402395538463E-05
(PID.TID 0000.0001) %MON vort_p_mean                  =  -3.1758669301984E-05
(PID.TID 0000.0001) %MON vort_p_sd                    =   1.3126385217363E-04
(PID.TID 0000.0001) %MON surfExpan_theta_mean         =   1.6714378321578E-04
(PID.TID 0000.0001) %MON surfExpan_salt_mean          =   1.3552567946290E-05
(PID.TID 0000.0001) // =======================================================
(PID.TID 0000.0001) // End MONITOR dynamic field statistics
(PID.TID 0000.0001) // =======================================================
time,SST,SSS,fu,fv,Q,E-P,i0,i1,a,b =   3.0240E+05  2.6438E-01  3.4446E+01 -3.9365E-02 -6.2237E-02  2.6525E+02  0.0000E+00    12     1  6.1667E-01  3.8333E-01
time,fu0,fu1,fu =   3.0240E+05 -4.5368E-02 -3.5633E-02 -3.9365E-02  6.1667E-01  3.8333E-01
 cg2d: Sum(rhs),rhsMax =   2.07603031987524E-14  7.75912737003211E+00
(PID.TID 0000.0001)                    cg2d_init_res =    1.41815022707736E+00
(PID.TID 0000.0001)                       cg2d_iters =    26
(PID.TID 0000.0001)                         cg2d_res =    2.36111268899318E-14
(PID.TID 0000.0001) // =======================================================
(PID.TID 0000.0001) // Begin MONITOR dynamic field statistics
(PID.TID 0000.0001) // =======================================================
(PID.TID 0000.0001) %MON time_tsnumber                =                     8
(PID.TID 0000.0001) %MON time_secondsf                =   3.4560000000000E+05
(PID.TID 0000.0001) %MON dynstat_eta_max              =   8.9650260250649E-01
(PID.TID 0000.0001) %MON dynstat_eta_min              =  -7.3524925288339E-01
(PID.TID 0000.0001) %MON dynstat_eta_mean             =   9.5507276653266E-18
(PID.TID 0000.0001) %MON dynstat_eta_sd               =   2.3053365539731E-01
(PID.TID 0000.0001) %MON dynstat_eta_del2             =   2.6272273046349E-02
(PID.TID 0000.0001) %MON dynstat_uvel_max             =   9.1706035754971E-02
(PID.TID 0000.0001) %MON dynstat_uvel_min             =  -9.5582619500714E-02
(PID.TID 0000.0001) %MON dynstat_uvel_mean            =  -5.5596287373210E-03
(PID.TID 0000.0001) %MON dynstat_uvel_sd              =   8.5682224538136E-03
(PID.TID 0000.0001) %MON dynstat_uvel_del2            =   2.7287172386425E-03
(PID.TID 0000.0001) %MON dynstat_vvel_max             =   8.7404412837528E-02
(PID.TID 0000.0001) %MON dynstat_vvel_min             =  -8.4408846425582E-02
(PID.TID 0000.0001) %MON dynstat_vvel_mean            =   5.0090115488597E-03
(PID.TID 0000.0001) %MON dynstat_vvel_sd              =   1.5079059974553E-02
(PID.TID 0000.0001) %MON dynstat_vvel_del2            =   3.1472846634400E-03
(PID.TID 0000.0001) %MON dynstat_wvel_max             =   3.0283419154358E-04
(PID.TID 0000.0001) %MON dynstat_wvel_min             =  -3.2829884556765E-04
(PID.TID 0000.0001) %MON dynstat_wvel_mean            =  -1.8678064592255E-21
(PID.TID 0000.0001) %MON dynstat_wvel_sd              =   3.6352001749650E-05
(PID.TID 0000.0001) %MON dynstat_wvel_del2            =   1.2630465920022E-05
(PID.TID 0000.0001) %MON dynstat_theta_max            =   2.9705167312635E+01
(PID.TID 0000.0001) %MON dynstat_theta_min            =  -2.0133922162639E+00
(PID.TID 0000.0001) %MON dynstat_theta_mean           =   3.6075474008991E+00
(PID.TID 0000.0001) %MON dynstat_theta_sd             =   4.3902298920537E+00
(PID.TID 0000.0001) %MON dynstat_theta_del2           =   1.4324063842331E-01
(PID.TID 0000.0001) %MON dynstat_salt_max             =   3.7444925804362E+01
(PID.TID 0000.0001) %MON dynstat_salt_min             =   2.9782263857737E+01
(PID.TID 0000.0001) %MON dynstat_salt_mean            =   3.4717001360465E+01
(PID.TID 0000.0001) %MON dynstat_salt_sd              =   2.9594522259966E-01
(PID.TID 0000.0001) %MON dynstat_salt_del2            =   2.5903061795726E-02
(PID.TID 0000.0001) %MON advcfl_uvel_max              =   1.9385286512112E-02
(PID.TID 0000.0001) %MON advcfl_vvel_max              =   8.4906378080411E-03
(PID.TID 0000.0001) %MON advcfl_wvel_max              =   1.9847897119823E-01
(PID.TID 0000.0001) %MON advcfl_W_hf_max              =   2.0418625183993E-01
(PID.TID 0000.0001) %MON pe_b_mean                    =   6.8006413753202E-05
(PID.TID 0000.0001) %MON ke_max                       =   4.3071999600391E-03
(PID.TID 0000.0001) %MON ke_mean                      =   1.6073999437081E-04
(PID.TID 0000.0001) %MON ke_vol                       =   1.3226782436723E+18
(PID.TID 0000.0001) %MON vort_r_min                   =  -3.4275975421683E-07
(PID.TID 0000.0001) %MON vort_r_max                   =   4.1943167017481E-07
(PID.TID 0000.0001) %MON vort_a_mean                  =  -2.5205769233152E-05
(PID.TID 0000.0001) %MON vort_a_sd                    =   7.3402221263635E-05
(PID.TID 0000.0001) %MON vort_p_mean                  =  -3.1758669355512E-05
(PID.TID 0000.0001) %MON vort_p_sd                    =   1.3126321830727E-04
(PID.TID 0000.0001) %MON surfExpan_theta_mean         =   1.6876551634451E-04
(PID.TID 0000.0001) %MON surfExpan_salt_mean          =   1.3448645842555E-05
(PID.TID 0000.0001) // =======================================================
(PID.TID 0000.0001) // End MONITOR dynamic field statistics
(PID.TID 0000.0001) // =======================================================
time,SST,SSS,fu,fv,Q,E-P,i0,i1,a,b =   3.4560E+05  2.9456E-01  3.4457E+01 -3.9202E-02 -6.2020E-02  2.6528E+02  0.0000E+00    12     1  6.3333E-01  3.6667E-01
time,fu0,fu1,fu =   3.4560E+05 -4.5368E-02 -3.5633E-02 -3.9202E-02  6.3333E-01  3.6667E-01
 cg2d: Sum(rhs),rhsMax =   2.06930826640583E-14  8.10189543860989E+00
(PID.TID 0000.0001)                    cg2d_init_res =    1.30943321207782E+00
(PID.TID 0000.0001)                       cg2d_iters =    25
(PID.TID 0000.0001)                         cg2d_res =    9.75841938662452E-14
(PID.TID 0000.0001) // =======================================================
(PID.TID 0000.0001) // Begin MONITOR dynamic field statistics
(PID.TID 0000.0001) // =======================================================
(PID.TID 0000.0001) %MON time_tsnumber                =                     9
(PID.TID 0000.0001) %MON time_secondsf                =   3.8880000000000E+05
(PID.TID 0000.0001) %MON dynstat_eta_max              =   9.4064172109216E-01
(PID.TID 0000.0001) %MON dynstat_eta_min              =  -8.1284633432764E-01
(PID.TID 0000.0001) %MON dynstat_eta_mean             =   2.2333520612015E-17
(PID.TID 0000.0001) %MON dynstat_eta_sd               =   2.5465324190328E-01
(PID.TID 0000.0001) %MON dynstat_eta_del2             =   2.5570080266139E-02
(PID.TID 0000.0001) %MON dynstat_uvel_max             =   1.0289594293347E-01
(PID.TID 0000.0001) %MON dynstat_uvel_min             =  -1.1425471407149E-01
(PID.TID 0000.0001) %MON dynstat_uvel_mean            =  -6.4602881456429E-03
(PID.TID 0000.0001) %MON dynstat_uvel_sd              =   9.8690489875810E-03
(PID.TID 0000.0001) %MON dynstat_uvel_del2            =   2.9987328921750E-03
(PID.TID 0000.0001) %MON dynstat_vvel_max             =   9.2313953966729E-02
(PID.TID 0000.0001) %MON dynstat_vvel_min             =  -9.5436240453563E-02
(PID.TID 0000.0001) %MON dynstat_vvel_mean            =   5.1397213541024E-03
(PID.TID 0000.0001) %MON dynstat_vvel_sd              =   1.5563601357212E-02
(PID.TID 0000.0001) %MON dynstat_vvel_del2            =   3.4166961182064E-03
(PID.TID 0000.0001) %MON dynstat_wvel_max             =   3.2059525325107E-04
(PID.TID 0000.0001) %MON dynstat_wvel_min             =  -3.5192453575121E-04
(PID.TID 0000.0001) %MON dynstat_wvel_mean            =   1.0927736700274E-21
(PID.TID 0000.0001) %MON dynstat_wvel_sd              =   3.7995756104433E-05
(PID.TID 0000.0001) %MON dynstat_wvel_del2            =   1.3583144547696E-05
(PID.TID 0000.0001) %MON dynstat_theta_max            =   2.9683514251005E+01
(PID.TID 0000.0001) %MON dynstat_theta_min            =  -2.0265867499668E+00
(PID.TID 0000.0001) %MON dynstat_theta_mean           =   3.6057147983606E+00
(PID.TID 0000.0001) %MON dynstat_theta_sd             =   4.3858307736570E+00
(PID.TID 0000.0001) %MON dynstat_theta_del2           =   1.4227763757494E-01
(PID.TID 0000.0001) %MON dynstat_salt_max             =   3.7443133627112E+01
(PID.TID 0000.0001) %MON dynstat_salt_min             =   2.9785619043049E+01
(PID.TID 0000.0001) %MON dynstat_salt_mean            =   3.4716858166541E+01
(PID.TID 0000.0001) %MON dynstat_salt_sd              =   2.9589856712063E-01
(PID.TID 0000.0001) %MON dynstat_salt_del2            =   2.5817882669690E-02
(PID.TID 0000.0001) %MON advcfl_uvel_max              =   1.9732454168013E-02
(PID.TID 0000.0001) %MON advcfl_vvel_max              =   9.2708654534248E-03
(PID.TID 0000.0001) %MON advcfl_wvel_max              =   2.0775394877213E-01
(PID.TID 0000.0001) %MON advcfl_W_hf_max              =   2.1660295812451E-01
(PID.TID 0000.0001) %MON pe_b_mean                    =   8.2981182432354E-05
(PID.TID 0000.0001) %MON ke_max                       =   5.4183702174992E-03
(PID.TID 0000.0001) %MON ke_mean                      =   1.8381579341664E-04
(PID.TID 0000.0001) %MON ke_vol                       =   1.3226782436723E+18
(PID.TID 0000.0001) %MON vort_r_min                   =  -3.6241054083024E-07
(PID.TID 0000.0001) %MON vort_r_max                   =   5.0229434363328E-07
(PID.TID 0000.0001) %MON vort_a_mean                  =  -2.5205769294172E-05
(PID.TID 0000.0001) %MON vort_a_sd                    =   7.3402051636640E-05
(PID.TID 0000.0001) %MON vort_p_mean                  =  -3.1758669432396E-05
(PID.TID 0000.0001) %MON vort_p_sd                    =   1.3126256325783E-04
(PID.TID 0000.0001) %MON surfExpan_theta_mean         =   1.6670257936807E-04
(PID.TID 0000.0001) %MON surfExpan_salt_mean          =   1.3000316672630E-05
(PID.TID 0000.0001) // =======================================================
(PID.TID 0000.0001) // End MONITOR dynamic field statistics
(PID.TID 0000.0001) // =======================================================
time,SST,SSS,fu,fv,Q,E-P,i0,i1,a,b =   3.8880E+05  3.2473E-01  3.4469E+01 -3.9040E-02 -6.1804E-02  2.6530E+02  0.0000E+00    12     1  6.5000E-01  3.5000E-01
time,fu0,fu1,fu =   3.8880E+05 -4.5368E-02 -3.5633E-02 -3.9040E-02  6.5000E-01  3.5000E-01
 cg2d: Sum(rhs),rhsMax =  -1.41390154792531E-13  8.20838987866645E+00
(PID.TID 0000.0001)                    cg2d_init_res =    1.24843075696546E+00
(PID.TID 0000.0001)                       cg2d_iters =    25
(PID.TID 0000.0001)                         cg2d_res =    9.14512502183874E-14
(PID.TID 0000.0001) // =======================================================
(PID.TID 0000.0001) // Begin MONITOR dynamic field statistics
(PID.TID 0000.0001) // =======================================================
(PID.TID 0000.0001) %MON time_tsnumber                =                    10
(PID.TID 0000.0001) %MON time_secondsf                =   4.3200000000000E+05
(PID.TID 0000.0001) %MON dynstat_eta_max              =   9.5839646272561E-01
(PID.TID 0000.0001) %MON dynstat_eta_min              =  -8.6938665448232E-01
(PID.TID 0000.0001) %MON dynstat_eta_mean             =   3.2161833843379E-17
(PID.TID 0000.0001) %MON dynstat_eta_sd               =   2.7723382703219E-01
(PID.TID 0000.0001) %MON dynstat_eta_del2             =   2.4849523696093E-02
(PID.TID 0000.0001) %MON dynstat_uvel_max             =   1.1373756886608E-01
(PID.TID 0000.0001) %MON dynstat_uvel_min             =  -1.2999275285327E-01
(PID.TID 0000.0001) %MON dynstat_uvel_mean            =  -7.3056379262997E-03
(PID.TID 0000.0001) %MON dynstat_uvel_sd              =   1.1150073192494E-02
(PID.TID 0000.0001) %MON dynstat_uvel_del2            =   3.2513019920433E-03
(PID.TID 0000.0001) %MON dynstat_vvel_max             =   9.4244432993566E-02
(PID.TID 0000.0001) %MON dynstat_vvel_min             =  -1.0568944688045E-01
(PID.TID 0000.0001) %MON dynstat_vvel_mean            =   5.1564899397755E-03
(PID.TID 0000.0001) %MON dynstat_vvel_sd              =   1.5849829174672E-02
(PID.TID 0000.0001) %MON dynstat_vvel_del2            =   3.6614959936938E-03
(PID.TID 0000.0001) %MON dynstat_wvel_max             =   3.3353589967160E-04
(PID.TID 0000.0001) %MON dynstat_wvel_min             =  -3.7345509014029E-04
(PID.TID 0000.0001) %MON dynstat_wvel_mean            =   8.0726642323485E-22
(PID.TID 0000.0001) %MON dynstat_wvel_sd              =   3.9324351859763E-05
(PID.TID 0000.0001) %MON dynstat_wvel_del2            =   1.4353228482102E-05
(PID.TID 0000.0001) %MON dynstat_theta_max            =   2.9658224716121E+01
(PID.TID 0000.0001) %MON dynstat_theta_min            =  -2.0353180991798E+00
(PID.TID 0000.0001) %MON dynstat_theta_mean           =   3.6039628948146E+00
(PID.TID 0000.0001) %MON dynstat_theta_sd             =   4.3814523919635E+00
(PID.TID 0000.0001) %MON dynstat_theta_del2           =   1.4133092761752E-01
(PID.TID 0000.0001) %MON dynstat_salt_max             =   3.7441345491798E+01
(PID.TID 0000.0001) %MON dynstat_salt_min             =   2.9788514598536E+01
(PID.TID 0000.0001) %MON dynstat_salt_mean            =   3.4716725143962E+01
(PID.TID 0000.0001) %MON dynstat_salt_sd              =   2.9584489985297E-01
(PID.TID 0000.0001) %MON dynstat_salt_del2            =   2.5734084017075E-02
(PID.TID 0000.0001) %MON advcfl_uvel_max              =   1.8856813855625E-02
(PID.TID 0000.0001) %MON advcfl_vvel_max              =   1.0266882236967E-02
(PID.TID 0000.0001) %MON advcfl_wvel_max              =   2.1508809290939E-01
(PID.TID 0000.0001) %MON advcfl_W_hf_max              =   2.1059820949631E-01
(PID.TID 0000.0001) %MON pe_b_mean                    =   9.8349836095752E-05
(PID.TID 0000.0001) %MON ke_max                       =   6.6177441360534E-03
(PID.TID 0000.0001) %MON ke_mean                      =   2.0544970409446E-04
(PID.TID 0000.0001) %MON ke_vol                       =   1.3226782436723E+18
(PID.TID 0000.0001) %MON vort_r_min                   =  -3.7957105105602E-07
(PID.TID 0000.0001) %MON vort_r_max                   =   5.8076042844463E-07
(PID.TID 0000.0001) %MON vort_a_mean                  =  -2.5205769362016E-05
(PID.TID 0000.0001) %MON vort_a_sd                    =   7.3401891341798E-05
(PID.TID 0000.0001) %MON vort_p_mean                  =  -3.1758669517878E-05
(PID.TID 0000.0001) %MON vort_p_sd                    =   1.3126190975274E-04
(PID.TID 0000.0001) %MON surfExpan_theta_mean         =   1.6153813252232E-04
(PID.TID 0000.0001) %MON surfExpan_salt_mean          =   1.2267063115239E-05
(PID.TID 0000.0001) // =======================================================
(PID.TID 0000.0001) // End MONITOR dynamic field statistics
(PID.TID 0000.0001) // =======================================================
time,SST,SSS,fu,fv,Q,E-P,i0,i1,a,b =   4.3200E+05  3.5491E-01  3.4481E+01 -3.8878E-02 -6.1587E-02  2.6532E+02  0.0000E+00    12     1  6.6667E-01  3.3333E-01
time,fu0,fu1,fu =   4.3200E+05 -4.5368E-02 -3.5633E-02 -3.8878E-02  6.6667E-01  3.3333E-01
 cg2d: Sum(rhs),rhsMax =  -2.78024131494803E-13  8.13787538473573E+00
(PID.TID 0000.0001)                    cg2d_init_res =    1.21764756861888E+00
(PID.TID 0000.0001)                       cg2d_iters =    25
(PID.TID 0000.0001)                         cg2d_res =    8.73112780961525E-14
(PID.TID 0000.0001) // =======================================================
(PID.TID 0000.0001) // Begin MONITOR dynamic field statistics
(PID.TID 0000.0001) // =======================================================
(PID.TID 0000.0001) %MON time_tsnumber                =                    11
(PID.TID 0000.0001) %MON time_secondsf                =   4.7520000000000E+05
(PID.TID 0000.0001) %MON dynstat_eta_max              =   9.5610500298100E-01
(PID.TID 0000.0001) %MON dynstat_eta_min              =  -9.2347729559454E-01
(PID.TID 0000.0001) %MON dynstat_eta_mean             =  -8.3357950174399E-17
(PID.TID 0000.0001) %MON dynstat_eta_sd               =   2.9801988925448E-01
(PID.TID 0000.0001) %MON dynstat_eta_del2             =   2.4165550865234E-02
(PID.TID 0000.0001) %MON dynstat_uvel_max             =   1.2423150973065E-01
(PID.TID 0000.0001) %MON dynstat_uvel_min             =  -1.4212537732057E-01
(PID.TID 0000.0001) %MON dynstat_uvel_mean            =  -8.0714445799474E-03
(PID.TID 0000.0001) %MON dynstat_uvel_sd              =   1.2387263156327E-02
(PID.TID 0000.0001) %MON dynstat_uvel_del2            =   3.4894736041424E-03
(PID.TID 0000.0001) %MON dynstat_vvel_max             =   1.0267072707750E-01
(PID.TID 0000.0001) %MON dynstat_vvel_min             =  -1.1495448999089E-01
(PID.TID 0000.0001) %MON dynstat_vvel_mean            =   5.0702598168395E-03
(PID.TID 0000.0001) %MON dynstat_vvel_sd              =   1.5979352842060E-02
(PID.TID 0000.0001) %MON dynstat_vvel_del2            =   3.8841206731218E-03
(PID.TID 0000.0001) %MON dynstat_wvel_max             =   3.4118280984351E-04
(PID.TID 0000.0001) %MON dynstat_wvel_min             =  -3.9350646467415E-04
(PID.TID 0000.0001) %MON dynstat_wvel_mean            =  -1.8941337348228E-21
(PID.TID 0000.0001) %MON dynstat_wvel_sd              =   4.0324073389022E-05
(PID.TID 0000.0001) %MON dynstat_wvel_del2            =   1.4965131302767E-05
(PID.TID 0000.0001) %MON dynstat_theta_max            =   2.9631739620573E+01
(PID.TID 0000.0001) %MON dynstat_theta_min            =  -2.0399153162247E+00
(PID.TID 0000.0001) %MON dynstat_theta_mean           =   3.6023161495020E+00
(PID.TID 0000.0001) %MON dynstat_theta_sd             =   4.3771457633406E+00
(PID.TID 0000.0001) %MON dynstat_theta_del2           =   1.4043043984474E-01
(PID.TID 0000.0001) %MON dynstat_salt_max             =   3.7439433201862E+01
(PID.TID 0000.0001) %MON dynstat_salt_min             =   2.9790894406875E+01
(PID.TID 0000.0001) %MON dynstat_salt_mean            =   3.4716604361599E+01
(PID.TID 0000.0001) %MON dynstat_salt_sd              =   2.9578665581741E-01
(PID.TID 0000.0001) %MON dynstat_salt_del2            =   2.5656374054715E-02
(PID.TID 0000.0001) %MON advcfl_uvel_max              =   1.9785725936746E-02
(PID.TID 0000.0001) %MON advcfl_vvel_max              =   1.1166906878433E-02
(PID.TID 0000.0001) %MON advcfl_wvel_max              =   2.1779855425914E-01
(PID.TID 0000.0001) %MON advcfl_W_hf_max              =   2.0603404458393E-01
(PID.TID 0000.0001) %MON pe_b_mean                    =   1.1365059091996E-04
(PID.TID 0000.0001) %MON ke_max                       =   7.8966171296974E-03
(PID.TID 0000.0001) %MON ke_mean                      =   2.2548431615388E-04
(PID.TID 0000.0001) %MON ke_vol                       =   1.3226782436723E+18
(PID.TID 0000.0001) %MON vort_r_min                   =  -3.9933716719395E-07
(PID.TID 0000.0001) %MON vort_r_max                   =   6.5182432296097E-07
(PID.TID 0000.0001) %MON vort_a_mean                  =  -2.5205769425787E-05
(PID.TID 0000.0001) %MON vort_a_sd                    =   7.3401744646147E-05
(PID.TID 0000.0001) %MON vort_p_mean                  =  -3.1758669598227E-05
(PID.TID 0000.0001) %MON vort_p_sd                    =   1.3126128190003E-04
(PID.TID 0000.0001) %MON surfExpan_theta_mean         =   1.5383385715635E-04
(PID.TID 0000.0001) %MON surfExpan_salt_mean          =   1.1309640605619E-05
(PID.TID 0000.0001) // =======================================================
(PID.TID 0000.0001) // End MONITOR dynamic field statistics
(PID.TID 0000.0001) // =======================================================
time,SST,SSS,fu,fv,Q,E-P,i0,i1,a,b =   4.7520E+05  3.8508E-01  3.4492E+01 -3.8716E-02 -6.1371E-02  2.6534E+02  0.0000E+00    12     1  6.8333E-01  3.1667E-01
time,fu0,fu1,fu =   4.7520E+05 -4.5368E-02 -3.5633E-02 -3.8716E-02  6.8333E-01  3.1667E-01
 cg2d: Sum(rhs),rhsMax =   3.99493806091389E-13  8.14788871653525E+00
(PID.TID 0000.0001)                    cg2d_init_res =    1.17638061339488E+00
(PID.TID 0000.0001)                       cg2d_iters =    25
(PID.TID 0000.0001)                         cg2d_res =    8.27100320788554E-14
(PID.TID 0000.0001) // =======================================================
(PID.TID 0000.0001) // Begin MONITOR dynamic field statistics
(PID.TID 0000.0001) // =======================================================
(PID.TID 0000.0001) %MON time_tsnumber                =                    12
(PID.TID 0000.0001) %MON time_secondsf                =   5.1840000000000E+05
(PID.TID 0000.0001) %MON dynstat_eta_max              =   1.0074952809529E+00
(PID.TID 0000.0001) %MON dynstat_eta_min              =  -1.0456218325888E+00
(PID.TID 0000.0001) %MON dynstat_eta_mean             =   7.7987136982462E-17
(PID.TID 0000.0001) %MON dynstat_eta_sd               =   3.1679447754536E-01
(PID.TID 0000.0001) %MON dynstat_eta_del2             =   2.3412655868645E-02
(PID.TID 0000.0001) %MON dynstat_uvel_max             =   1.3434959297698E-01
(PID.TID 0000.0001) %MON dynstat_uvel_min             =  -1.5042032790358E-01
(PID.TID 0000.0001) %MON dynstat_uvel_mean            =  -8.7373309401555E-03
(PID.TID 0000.0001) %MON dynstat_uvel_sd              =   1.3561665056665E-02
(PID.TID 0000.0001) %MON dynstat_uvel_del2            =   3.7121775784201E-03
(PID.TID 0000.0001) %MON dynstat_vvel_max             =   1.0909702753803E-01
(PID.TID 0000.0001) %MON dynstat_vvel_min             =  -1.2299795991590E-01
(PID.TID 0000.0001) %MON dynstat_vvel_mean            =   4.8958452340141E-03
(PID.TID 0000.0001) %MON dynstat_vvel_sd              =   1.5995482153990E-02
(PID.TID 0000.0001) %MON dynstat_vvel_del2            =   4.0875317201459E-03
(PID.TID 0000.0001) %MON dynstat_wvel_max             =   3.4889561413216E-04
(PID.TID 0000.0001) %MON dynstat_wvel_min             =  -4.1226545753327E-04
(PID.TID 0000.0001) %MON dynstat_wvel_mean            =   2.7639121990510E-21
(PID.TID 0000.0001) %MON dynstat_wvel_sd              =   4.1016285168004E-05
(PID.TID 0000.0001) %MON dynstat_wvel_del2            =   1.5439432988047E-05
(PID.TID 0000.0001) %MON dynstat_theta_max            =   2.9604817057475E+01
(PID.TID 0000.0001) %MON dynstat_theta_min            =  -2.0410855195313E+00
(PID.TID 0000.0001) %MON dynstat_theta_mean           =   3.6007932278930E+00
(PID.TID 0000.0001) %MON dynstat_theta_sd             =   4.3729551919378E+00
(PID.TID 0000.0001) %MON dynstat_theta_del2           =   1.3957783731857E-01
(PID.TID 0000.0001) %MON dynstat_salt_max             =   3.7437313117321E+01
(PID.TID 0000.0001) %MON dynstat_salt_min             =   2.9792878071387E+01
(PID.TID 0000.0001) %MON dynstat_salt_mean            =   3.4716497212711E+01
(PID.TID 0000.0001) %MON dynstat_salt_sd              =   2.9572488668864E-01
(PID.TID 0000.0001) %MON dynstat_salt_del2            =   2.5585432460091E-02
(PID.TID 0000.0001) %MON advcfl_uvel_max              =   2.3574391488341E-02
(PID.TID 0000.0001) %MON advcfl_vvel_max              =   1.1948265480773E-02
(PID.TID 0000.0001) %MON advcfl_wvel_max              =   2.1819616909138E-01
(PID.TID 0000.0001) %MON advcfl_W_hf_max              =   1.8945581167236E-01
(PID.TID 0000.0001) %MON pe_b_mean                    =   1.2842110563679E-04
(PID.TID 0000.0001) %MON ke_max                       =   9.2378762547317E-03
(PID.TID 0000.0001) %MON ke_mean                      =   2.4386552311052E-04
(PID.TID 0000.0001) %MON ke_vol                       =   1.3226782436723E+18
(PID.TID 0000.0001) %MON vort_r_min                   =  -4.0763666382726E-07
(PID.TID 0000.0001) %MON vort_r_max                   =   7.1290551796514E-07
(PID.TID 0000.0001) %MON vort_a_mean                  =  -2.5205769476608E-05
(PID.TID 0000.0001) %MON vort_a_sd                    =   7.3401615245745E-05
(PID.TID 0000.0001) %MON vort_p_mean                  =  -3.1758669662260E-05
(PID.TID 0000.0001) %MON vort_p_sd                    =   1.3126070388636E-04
(PID.TID 0000.0001) %MON surfExpan_theta_mean         =   1.4414368873054E-04
(PID.TID 0000.0001) %MON surfExpan_salt_mean          =   1.0192740311379E-05
(PID.TID 0000.0001) // =======================================================
(PID.TID 0000.0001) // End MONITOR dynamic field statistics
(PID.TID 0000.0001) // =======================================================
time,SST,SSS,fu,fv,Q,E-P,i0,i1,a,b =   5.1840E+05  4.1526E-01  3.4504E+01 -3.8553E-02 -6.1154E-02  2.6537E+02  0.0000E+00    12     1  7.0000E-01  3.0000E-01
time,fu0,fu1,fu =   5.1840E+05 -4.5368E-02 -3.5633E-02 -3.8553E-02  7.0000E-01  3.0000E-01
 cg2d: Sum(rhs),rhsMax =  -1.62933035119384E-13  8.75897655452794E+00
(PID.TID 0000.0001)                    cg2d_init_res =    1.05920575531753E+00
(PID.TID 0000.0001)                       cg2d_iters =    25
(PID.TID 0000.0001)                         cg2d_res =    7.25210925763079E-14
(PID.TID 0000.0001) // =======================================================
(PID.TID 0000.0001) // Begin MONITOR dynamic field statistics
(PID.TID 0000.0001) // =======================================================
(PID.TID 0000.0001) %MON time_tsnumber                =                    13
(PID.TID 0000.0001) %MON time_secondsf                =   5.6160000000000E+05
(PID.TID 0000.0001) %MON dynstat_eta_max              =   1.0612829545239E+00
(PID.TID 0000.0001) %MON dynstat_eta_min              =  -1.1653292308304E+00
(PID.TID 0000.0001) %MON dynstat_eta_mean             =  -2.4661094385593E-17
(PID.TID 0000.0001) %MON dynstat_eta_sd               =   3.3339720045979E-01
(PID.TID 0000.0001) %MON dynstat_eta_del2             =   2.2673864779900E-02
(PID.TID 0000.0001) %MON dynstat_uvel_max             =   1.4404834909173E-01
(PID.TID 0000.0001) %MON dynstat_uvel_min             =  -1.5498454381975E-01
(PID.TID 0000.0001) %MON dynstat_uvel_mean            =  -9.2875697491510E-03
(PID.TID 0000.0001) %MON dynstat_uvel_sd              =   1.4659495441169E-02
(PID.TID 0000.0001) %MON dynstat_uvel_del2            =   3.9196152983956E-03
(PID.TID 0000.0001) %MON dynstat_vvel_max             =   1.1511302164944E-01
(PID.TID 0000.0001) %MON dynstat_vvel_min             =  -1.2959861406528E-01
(PID.TID 0000.0001) %MON dynstat_vvel_mean            =   4.6511506019199E-03
(PID.TID 0000.0001) %MON dynstat_vvel_sd              =   1.5940318449422E-02
(PID.TID 0000.0001) %MON dynstat_vvel_del2            =   4.2693770673242E-03
(PID.TID 0000.0001) %MON dynstat_wvel_max             =   3.5504300360677E-04
(PID.TID 0000.0001) %MON dynstat_wvel_min             =  -4.3379769453909E-04
(PID.TID 0000.0001) %MON dynstat_wvel_mean            =   2.5543863988240E-21
(PID.TID 0000.0001) %MON dynstat_wvel_sd              =   4.1437035768474E-05
(PID.TID 0000.0001) %MON dynstat_wvel_del2            =   1.5789012986952E-05
(PID.TID 0000.0001) %MON dynstat_theta_max            =   2.9576595204747E+01
(PID.TID 0000.0001) %MON dynstat_theta_min            =  -2.0394050887660E+00
(PID.TID 0000.0001) %MON dynstat_theta_mean           =   3.5994072338041E+00
(PID.TID 0000.0001) %MON dynstat_theta_sd             =   4.3689206083029E+00
(PID.TID 0000.0001) %MON dynstat_theta_del2           =   1.3880838870249E-01
(PID.TID 0000.0001) %MON dynstat_salt_max             =   3.7435093489310E+01
(PID.TID 0000.0001) %MON dynstat_salt_min             =   2.9794662480104E+01
(PID.TID 0000.0001) %MON dynstat_salt_mean            =   3.4716404418834E+01
(PID.TID 0000.0001) %MON dynstat_salt_sd              =   2.9566039144333E-01
(PID.TID 0000.0001) %MON dynstat_salt_del2            =   2.5522700703546E-02
(PID.TID 0000.0001) %MON advcfl_uvel_max              =   2.8361157493328E-02
(PID.TID 0000.0001) %MON advcfl_vvel_max              =   1.2589466100503E-02
(PID.TID 0000.0001) %MON advcfl_wvel_max              =   2.2481908658145E-01
(PID.TID 0000.0001) %MON advcfl_W_hf_max              =   1.9030767300140E-01
(PID.TID 0000.0001) %MON pe_b_mean                    =   1.4223454821393E-04
(PID.TID 0000.0001) %MON ke_max                       =   1.0616555645528E-02
(PID.TID 0000.0001) %MON ke_mean                      =   2.6060735335008E-04
(PID.TID 0000.0001) %MON ke_vol                       =   1.3226782436723E+18
(PID.TID 0000.0001) %MON vort_r_min                   =  -4.4248255377681E-07
(PID.TID 0000.0001) %MON vort_r_max                   =   7.6186070815136E-07
(PID.TID 0000.0001) %MON vort_a_mean                  =  -2.5205769508170E-05
(PID.TID 0000.0001) %MON vort_a_sd                    =   7.3401506117148E-05
(PID.TID 0000.0001) %MON vort_p_mean                  =  -3.1758669702028E-05
(PID.TID 0000.0001) %MON vort_p_sd                    =   1.3126019747899E-04
(PID.TID 0000.0001) %MON surfExpan_theta_mean         =   1.3296759491090E-04
(PID.TID 0000.0001) %MON surfExpan_salt_mean          =   8.9758493406701E-06
(PID.TID 0000.0001) // =======================================================
(PID.TID 0000.0001) // End MONITOR dynamic field statistics
(PID.TID 0000.0001) // =======================================================
time,SST,SSS,fu,fv,Q,E-P,i0,i1,a,b =   5.6160E+05  4.4544E-01  3.4516E+01 -3.8391E-02 -6.0938E-02  2.6539E+02  0.0000E+00    12     1  7.1667E-01  2.8333E-01
time,fu0,fu1,fu =   5.6160E+05 -4.5368E-02 -3.5633E-02 -3.8391E-02  7.1667E-01  2.8333E-01
 cg2d: Sum(rhs),rhsMax =   2.14754429517239E-13  9.51806764571326E+00
(PID.TID 0000.0001)                    cg2d_init_res =    9.45113257580467E-01
(PID.TID 0000.0001)                       cg2d_iters =    25
(PID.TID 0000.0001)                         cg2d_res =    6.20690377733551E-14
(PID.TID 0000.0001) // =======================================================
(PID.TID 0000.0001) // Begin MONITOR dynamic field statistics
(PID.TID 0000.0001) // =======================================================
(PID.TID 0000.0001) %MON time_tsnumber                =                    14
(PID.TID 0000.0001) %MON time_secondsf                =   6.0480000000000E+05
(PID.TID 0000.0001) %MON dynstat_eta_max              =   1.1485355435680E+00
(PID.TID 0000.0001) %MON dynstat_eta_min              =  -1.2548042367039E+00
(PID.TID 0000.0001) %MON dynstat_eta_mean             =   5.4347420465427E-18
(PID.TID 0000.0001) %MON dynstat_eta_sd               =   3.4773665929740E-01
(PID.TID 0000.0001) %MON dynstat_eta_del2             =   2.1998967916813E-02
(PID.TID 0000.0001) %MON dynstat_uvel_max             =   1.5328216186974E-01
(PID.TID 0000.0001) %MON dynstat_uvel_min             =  -1.5614301509586E-01
(PID.TID 0000.0001) %MON dynstat_uvel_mean            =  -9.7116385349340E-03
(PID.TID 0000.0001) %MON dynstat_uvel_sd              =   1.5671692627950E-02
(PID.TID 0000.0001) %MON dynstat_uvel_del2            =   4.1134681378250E-03
(PID.TID 0000.0001) %MON dynstat_vvel_max             =   1.2142408007300E-01
(PID.TID 0000.0001) %MON dynstat_vvel_min             =  -1.3456838932672E-01
(PID.TID 0000.0001) %MON dynstat_vvel_mean            =   4.3561215592179E-03
(PID.TID 0000.0001) %MON dynstat_vvel_sd              =   1.5851682537038E-02
(PID.TID 0000.0001) %MON dynstat_vvel_del2            =   4.4324654923459E-03
(PID.TID 0000.0001) %MON dynstat_wvel_max             =   3.6435778447921E-04
(PID.TID 0000.0001) %MON dynstat_wvel_min             =  -4.5417872204885E-04
(PID.TID 0000.0001) %MON dynstat_wvel_mean            =  -7.7564710226307E-24
(PID.TID 0000.0001) %MON dynstat_wvel_sd              =   4.1623258538461E-05
(PID.TID 0000.0001) %MON dynstat_wvel_del2            =   1.6028652645382E-05
(PID.TID 0000.0001) %MON dynstat_theta_max            =   2.9551094168610E+01
(PID.TID 0000.0001) %MON dynstat_theta_min            =  -2.0351974966057E+00
(PID.TID 0000.0001) %MON dynstat_theta_mean           =   3.5981666775077E+00
(PID.TID 0000.0001) %MON dynstat_theta_sd             =   4.3650785846401E+00
(PID.TID 0000.0001) %MON dynstat_theta_del2           =   1.3811725744564E-01
(PID.TID 0000.0001) %MON dynstat_salt_max             =   3.7432983177770E+01
(PID.TID 0000.0001) %MON dynstat_salt_min             =   2.9796149611561E+01
(PID.TID 0000.0001) %MON dynstat_salt_mean            =   3.4716326194441E+01
(PID.TID 0000.0001) %MON dynstat_salt_sd              =   2.9559413104098E-01
(PID.TID 0000.0001) %MON dynstat_salt_del2            =   2.5466671597832E-02
(PID.TID 0000.0001) %MON advcfl_uvel_max              =   3.2411804031058E-02
(PID.TID 0000.0001) %MON advcfl_vvel_max              =   1.3072239914345E-02
(PID.TID 0000.0001) %MON advcfl_wvel_max              =   2.1573655508921E-01
(PID.TID 0000.0001) %MON advcfl_W_hf_max              =   1.8207111189839E-01
(PID.TID 0000.0001) %MON pe_b_mean                    =   1.5473271833304E-04
(PID.TID 0000.0001) %MON ke_max                       =   1.2003199982282E-02
(PID.TID 0000.0001) %MON ke_mean                      =   2.7575764003863E-04
(PID.TID 0000.0001) %MON ke_vol                       =   1.3226782436723E+18
(PID.TID 0000.0001) %MON vort_r_min                   =  -4.8129612415280E-07
(PID.TID 0000.0001) %MON vort_r_max                   =   7.9698721505045E-07
(PID.TID 0000.0001) %MON vort_a_mean                  =  -2.5205769517082E-05
(PID.TID 0000.0001) %MON vort_a_sd                    =   7.3401419396281E-05
(PID.TID 0000.0001) %MON vort_p_mean                  =  -3.1758669713256E-05
(PID.TID 0000.0001) %MON vort_p_sd                    =   1.3125977968054E-04
(PID.TID 0000.0001) %MON surfExpan_theta_mean         =   1.2074660898154E-04
(PID.TID 0000.0001) %MON surfExpan_salt_mean          =   7.7075905342924E-06
(PID.TID 0000.0001) // =======================================================
(PID.TID 0000.0001) // End MONITOR dynamic field statistics
(PID.TID 0000.0001) // =======================================================
time,SST,SSS,fu,fv,Q,E-P,i0,i1,a,b =   6.0480E+05  4.7561E-01  3.4527E+01 -3.8229E-02 -6.0721E-02  2.6541E+02  0.0000E+00    12     1  7.3333E-01  2.6667E-01
time,fu0,fu1,fu =   6.0480E+05 -4.5368E-02 -3.5633E-02 -3.8229E-02  7.3333E-01  2.6667E-01
 cg2d: Sum(rhs),rhsMax =   2.11049927534290E-13  1.00868019718989E+01
(PID.TID 0000.0001)                    cg2d_init_res =    8.67243374104983E-01
(PID.TID 0000.0001)                       cg2d_iters =    25
(PID.TID 0000.0001)                         cg2d_res =    5.35793856019731E-14
(PID.TID 0000.0001) // =======================================================
(PID.TID 0000.0001) // Begin MONITOR dynamic field statistics
(PID.TID 0000.0001) // =======================================================
(PID.TID 0000.0001) %MON time_tsnumber                =                    15
(PID.TID 0000.0001) %MON time_secondsf                =   6.4800000000000E+05
(PID.TID 0000.0001) %MON dynstat_eta_max              =   1.2150971531379E+00
(PID.TID 0000.0001) %MON dynstat_eta_min              =  -1.3020601273635E+00
(PID.TID 0000.0001) %MON dynstat_eta_mean             =   6.0466977446980E-17
(PID.TID 0000.0001) %MON dynstat_eta_sd               =   3.5979596630411E-01
(PID.TID 0000.0001) %MON dynstat_eta_del2             =   2.1424794377368E-02
(PID.TID 0000.0001) %MON dynstat_uvel_max             =   1.6200762688481E-01
(PID.TID 0000.0001) %MON dynstat_uvel_min             =  -1.5433012197518E-01
(PID.TID 0000.0001) %MON dynstat_uvel_mean            =  -1.0004446324087E-02
(PID.TID 0000.0001) %MON dynstat_uvel_sd              =   1.6593270805633E-02
(PID.TID 0000.0001) %MON dynstat_uvel_del2            =   4.2923918052225E-03
(PID.TID 0000.0001) %MON dynstat_vvel_max             =   1.3606226549395E-01
(PID.TID 0000.0001) %MON dynstat_vvel_min             =  -1.3776613822234E-01
(PID.TID 0000.0001) %MON dynstat_vvel_mean            =   4.0315331797091E-03
(PID.TID 0000.0001) %MON dynstat_vvel_sd              =   1.5760333191989E-02
(PID.TID 0000.0001) %MON dynstat_vvel_del2            =   4.5770308146063E-03
(PID.TID 0000.0001) %MON dynstat_wvel_max             =   3.7148202476889E-04
(PID.TID 0000.0001) %MON dynstat_wvel_min             =  -4.7123660162987E-04
(PID.TID 0000.0001) %MON dynstat_wvel_mean            =  -6.3076269136939E-23
(PID.TID 0000.0001) %MON dynstat_wvel_sd              =   4.1606747436872E-05
(PID.TID 0000.0001) %MON dynstat_wvel_del2            =   1.6167259620543E-05
(PID.TID 0000.0001) %MON dynstat_theta_max            =   2.9542395231782E+01
(PID.TID 0000.0001) %MON dynstat_theta_min            =  -2.0208385011660E+00
(PID.TID 0000.0001) %MON dynstat_theta_mean           =   3.5970761453373E+00
(PID.TID 0000.0001) %MON dynstat_theta_sd             =   4.3614662627918E+00
(PID.TID 0000.0001) %MON dynstat_theta_del2           =   1.3750999293818E-01
(PID.TID 0000.0001) %MON dynstat_salt_max             =   3.7430915336348E+01
(PID.TID 0000.0001) %MON dynstat_salt_min             =   2.9797349653746E+01
(PID.TID 0000.0001) %MON dynstat_salt_mean            =   3.4716262412572E+01
(PID.TID 0000.0001) %MON dynstat_salt_sd              =   2.9552851350750E-01
(PID.TID 0000.0001) %MON dynstat_salt_del2            =   2.5416727527073E-02
(PID.TID 0000.0001) %MON advcfl_uvel_max              =   3.5305134337827E-02
(PID.TID 0000.0001) %MON advcfl_vvel_max              =   1.3382875576691E-02
(PID.TID 0000.0001) %MON advcfl_wvel_max              =   1.9084898054512E-01
(PID.TID 0000.0001) %MON advcfl_W_hf_max              =   1.5963714451015E-01
(PID.TID 0000.0001) %MON pe_b_mean                    =   1.6565089261636E-04
(PID.TID 0000.0001) %MON ke_max                       =   1.3368001581391E-02
(PID.TID 0000.0001) %MON ke_mean                      =   2.8937063255095E-04
(PID.TID 0000.0001) %MON ke_vol                       =   1.3226782436723E+18
(PID.TID 0000.0001) %MON vort_r_min                   =  -5.1855959119914E-07
(PID.TID 0000.0001) %MON vort_r_max                   =   8.1700954828600E-07
(PID.TID 0000.0001) %MON vort_a_mean                  =  -2.5205769502932E-05
(PID.TID 0000.0001) %MON vort_a_sd                    =   7.3401356308160E-05
(PID.TID 0000.0001) %MON vort_p_mean                  =  -3.1758669695428E-05
(PID.TID 0000.0001) %MON vort_p_sd                    =   1.3125946106958E-04
(PID.TID 0000.0001) %MON surfExpan_theta_mean         =   1.0787948799465E-04
(PID.TID 0000.0001) %MON surfExpan_salt_mean          =   6.4304433959527E-06
(PID.TID 0000.0001) // =======================================================
(PID.TID 0000.0001) // End MONITOR dynamic field statistics
(PID.TID 0000.0001) // =======================================================
time,SST,SSS,fu,fv,Q,E-P,i0,i1,a,b =   6.4800E+05  5.0579E-01  3.4539E+01 -3.8067E-02 -6.0505E-02  2.6543E+02  0.0000E+00    12     1  7.5000E-01  2.5000E-01
time,fu0,fu1,fu =   6.4800E+05 -4.5368E-02 -3.5633E-02 -3.8067E-02  7.5000E-01  2.5000E-01
 cg2d: Sum(rhs),rhsMax =  -6.95355231727923E-14  1.04478985847005E+01
(PID.TID 0000.0001)                    cg2d_init_res =    8.17030641773738E-01
(PID.TID 0000.0001)                       cg2d_iters =    25
(PID.TID 0000.0001)                         cg2d_res =    4.55836704703473E-14
(PID.TID 0000.0001) // =======================================================
(PID.TID 0000.0001) // Begin MONITOR dynamic field statistics
(PID.TID 0000.0001) // =======================================================
(PID.TID 0000.0001) %MON time_tsnumber                =                    16
(PID.TID 0000.0001) %MON time_secondsf                =   6.9120000000000E+05
(PID.TID 0000.0001) %MON dynstat_eta_max              =   1.2574087867096E+00
(PID.TID 0000.0001) %MON dynstat_eta_min              =  -1.3029341546993E+00
(PID.TID 0000.0001) %MON dynstat_eta_mean             =   1.9454501629148E-17
(PID.TID 0000.0001) %MON dynstat_eta_sd               =   3.6963061179760E-01
(PID.TID 0000.0001) %MON dynstat_eta_del2             =   2.0994899629499E-02
(PID.TID 0000.0001) %MON dynstat_uvel_max             =   1.7017960994654E-01
(PID.TID 0000.0001) %MON dynstat_uvel_min             =  -1.5000525549260E-01
(PID.TID 0000.0001) %MON dynstat_uvel_mean            =  -1.0166171051974E-02
(PID.TID 0000.0001) %MON dynstat_uvel_sd              =   1.7422646328997E-02
(PID.TID 0000.0001) %MON dynstat_uvel_del2            =   4.4555740434611E-03
(PID.TID 0000.0001) %MON dynstat_vvel_max             =   1.4856730985174E-01
(PID.TID 0000.0001) %MON dynstat_vvel_min             =  -1.3910729507222E-01
(PID.TID 0000.0001) %MON dynstat_vvel_mean            =   3.6977194694779E-03
(PID.TID 0000.0001) %MON dynstat_vvel_sd              =   1.5688019462308E-02
(PID.TID 0000.0001) %MON dynstat_vvel_del2            =   4.7063314668655E-03
(PID.TID 0000.0001) %MON dynstat_wvel_max             =   3.7674134125847E-04
(PID.TID 0000.0001) %MON dynstat_wvel_min             =  -4.8523896809649E-04
(PID.TID 0000.0001) %MON dynstat_wvel_mean            =   2.3364840690790E-22
(PID.TID 0000.0001) %MON dynstat_wvel_sd              =   4.1413500788125E-05
(PID.TID 0000.0001) %MON dynstat_wvel_del2            =   1.6220031257642E-05
(PID.TID 0000.0001) %MON dynstat_theta_max            =   2.9526691834251E+01
(PID.TID 0000.0001) %MON dynstat_theta_min            =  -1.9919558859266E+00
(PID.TID 0000.0001) %MON dynstat_theta_mean           =   3.5961364539453E+00
(PID.TID 0000.0001) %MON dynstat_theta_sd             =   4.3581146868774E+00
(PID.TID 0000.0001) %MON dynstat_theta_del2           =   1.3697192444813E-01
(PID.TID 0000.0001) %MON dynstat_salt_max             =   3.7428927415916E+01
(PID.TID 0000.0001) %MON dynstat_salt_min             =   2.9798282398952E+01
(PID.TID 0000.0001) %MON dynstat_salt_mean            =   3.4716212608037E+01
(PID.TID 0000.0001) %MON dynstat_salt_sd              =   2.9546409490385E-01
(PID.TID 0000.0001) %MON dynstat_salt_del2            =   2.5374118538472E-02
(PID.TID 0000.0001) %MON advcfl_uvel_max              =   3.6689459994115E-02
(PID.TID 0000.0001) %MON advcfl_vvel_max              =   1.4432122785504E-02
(PID.TID 0000.0001) %MON advcfl_wvel_max              =   1.7538773735861E-01
(PID.TID 0000.0001) %MON advcfl_W_hf_max              =   1.4544114859850E-01
(PID.TID 0000.0001) %MON pe_b_mean                    =   1.7483044476675E-04
(PID.TID 0000.0001) %MON ke_max                       =   1.4684231750265E-02
(PID.TID 0000.0001) %MON ke_mean                      =   3.0149047444732E-04
(PID.TID 0000.0001) %MON ke_vol                       =   1.3226782436723E+18
(PID.TID 0000.0001) %MON vort_r_min                   =  -5.5363633372215E-07
(PID.TID 0000.0001) %MON vort_r_max                   =   8.2105395169377E-07
(PID.TID 0000.0001) %MON vort_a_mean                  =  -2.5205769467977E-05
(PID.TID 0000.0001) %MON vort_a_sd                    =   7.3401317166038E-05
(PID.TID 0000.0001) %MON vort_p_mean                  =  -3.1758669651385E-05
(PID.TID 0000.0001) %MON vort_p_sd                    =   1.3125924520486E-04
(PID.TID 0000.0001) %MON surfExpan_theta_mean         =   9.4716386941986E-05
(PID.TID 0000.0001) %MON surfExpan_salt_mean          =   5.1751031974424E-06
(PID.TID 0000.0001) // =======================================================
(PID.TID 0000.0001) // End MONITOR dynamic field statistics
(PID.TID 0000.0001) // =======================================================
time,SST,SSS,fu,fv,Q,E-P,i0,i1,a,b =   6.9120E+05  5.3596E-01  3.4551E+01 -3.7904E-02 -6.0288E-02  2.6546E+02  0.0000E+00    12     1  7.6667E-01  2.3333E-01
time,fu0,fu1,fu =   6.9120E+05 -4.5368E-02 -3.5633E-02 -3.7904E-02  7.6667E-01  2.3333E-01
 cg2d: Sum(rhs),rhsMax =   2.75095050905616E-13  1.05953427007010E+01
(PID.TID 0000.0001)                    cg2d_init_res =    7.88731657651424E-01
(PID.TID 0000.0001)                       cg2d_iters =    25
(PID.TID 0000.0001)                         cg2d_res =    3.90314119632887E-14
(PID.TID 0000.0001) // =======================================================
(PID.TID 0000.0001) // Begin MONITOR dynamic field statistics
(PID.TID 0000.0001) // =======================================================
(PID.TID 0000.0001) %MON time_tsnumber                =                    17
(PID.TID 0000.0001) %MON time_secondsf                =   7.3440000000000E+05
(PID.TID 0000.0001) %MON dynstat_eta_max              =   1.2748707834715E+00
(PID.TID 0000.0001) %MON dynstat_eta_min              =  -1.2907216572047E+00
(PID.TID 0000.0001) %MON dynstat_eta_mean             =   1.0745242878191E-16
(PID.TID 0000.0001) %MON dynstat_eta_sd               =   3.7736015869661E-01
(PID.TID 0000.0001) %MON dynstat_eta_del2             =   2.0524474235786E-02
(PID.TID 0000.0001) %MON dynstat_uvel_max             =   1.7774490651674E-01
(PID.TID 0000.0001) %MON dynstat_uvel_min             =  -1.4926336333081E-01
(PID.TID 0000.0001) %MON dynstat_uvel_mean            =  -1.0201741140904E-02
(PID.TID 0000.0001) %MON dynstat_uvel_sd              =   1.8160924873716E-02
(PID.TID 0000.0001) %MON dynstat_uvel_del2            =   4.6020511054770E-03
(PID.TID 0000.0001) %MON dynstat_vvel_max             =   1.5778040583614E-01
(PID.TID 0000.0001) %MON dynstat_vvel_min             =  -1.3918944811962E-01
(PID.TID 0000.0001) %MON dynstat_vvel_mean            =   3.3734529235641E-03
(PID.TID 0000.0001) %MON dynstat_vvel_sd              =   1.5646817542412E-02
(PID.TID 0000.0001) %MON dynstat_vvel_del2            =   4.8209121505395E-03
(PID.TID 0000.0001) %MON dynstat_wvel_max             =   3.8030668608060E-04
(PID.TID 0000.0001) %MON dynstat_wvel_min             =  -4.9520204203952E-04
(PID.TID 0000.0001) %MON dynstat_wvel_mean            =   9.4637003238252E-22
(PID.TID 0000.0001) %MON dynstat_wvel_sd              =   4.1066129867830E-05
(PID.TID 0000.0001) %MON dynstat_wvel_del2            =   1.6200425672345E-05
(PID.TID 0000.0001) %MON dynstat_theta_max            =   2.9503598297215E+01
(PID.TID 0000.0001) %MON dynstat_theta_min            =  -1.9537477838957E+00
(PID.TID 0000.0001) %MON dynstat_theta_mean           =   3.5953452552679E+00
(PID.TID 0000.0001) %MON dynstat_theta_sd             =   4.3550515026013E+00
(PID.TID 0000.0001) %MON dynstat_theta_del2           =   1.3650057619533E-01
(PID.TID 0000.0001) %MON dynstat_salt_max             =   3.7427216109477E+01
(PID.TID 0000.0001) %MON dynstat_salt_min             =   2.9798974427378E+01
(PID.TID 0000.0001) %MON dynstat_salt_mean            =   3.4716176125545E+01
(PID.TID 0000.0001) %MON dynstat_salt_sd              =   2.9540165448085E-01
(PID.TID 0000.0001) %MON dynstat_salt_del2            =   2.5338743293089E-02
(PID.TID 0000.0001) %MON advcfl_uvel_max              =   3.6321893761922E-02
(PID.TID 0000.0001) %MON advcfl_vvel_max              =   1.5327101180241E-02
(PID.TID 0000.0001) %MON advcfl_wvel_max              =   1.8233824504565E-01
(PID.TID 0000.0001) %MON advcfl_W_hf_max              =   1.4646708865063E-01
(PID.TID 0000.0001) %MON pe_b_mean                    =   1.8221884600907E-04
(PID.TID 0000.0001) %MON ke_max                       =   1.5930332431666E-02
(PID.TID 0000.0001) %MON ke_mean                      =   3.1214573099468E-04
(PID.TID 0000.0001) %MON ke_vol                       =   1.3226782436723E+18
(PID.TID 0000.0001) %MON vort_r_min                   =  -5.8595818743625E-07
(PID.TID 0000.0001) %MON vort_r_max                   =   8.0862425282573E-07
(PID.TID 0000.0001) %MON vort_a_mean                  =  -2.5205769416497E-05
(PID.TID 0000.0001) %MON vort_a_sd                    =   7.3401301437748E-05
(PID.TID 0000.0001) %MON vort_p_mean                  =  -3.1758669586522E-05
(PID.TID 0000.0001) %MON vort_p_sd                    =   1.3125912904866E-04
(PID.TID 0000.0001) %MON surfExpan_theta_mean         =   8.1561567046715E-05
(PID.TID 0000.0001) %MON surfExpan_salt_mean          =   3.9638062057418E-06
(PID.TID 0000.0001) // =======================================================
(PID.TID 0000.0001) // End MONITOR dynamic field statistics
(PID.TID 0000.0001) // =======================================================
time,SST,SSS,fu,fv,Q,E-P,i0,i1,a,b =   7.3440E+05  5.6614E-01  3.4563E+01 -3.7742E-02 -6.0072E-02  2.6548E+02  0.0000E+00    12     1  7.8333E-01  2.1667E-01
time,fu0,fu1,fu =   7.3440E+05 -4.5368E-02 -3.5633E-02 -3.7742E-02  7.8333E-01  2.1667E-01
 cg2d: Sum(rhs),rhsMax =   1.66817948343834E-13  1.05352089710681E+01
(PID.TID 0000.0001)                    cg2d_init_res =    7.78419649392674E-01
(PID.TID 0000.0001)                       cg2d_iters =    24
(PID.TID 0000.0001)                         cg2d_res =    8.31053171098865E-14
(PID.TID 0000.0001) // =======================================================
(PID.TID 0000.0001) // Begin MONITOR dynamic field statistics
(PID.TID 0000.0001) // =======================================================
(PID.TID 0000.0001) %MON time_tsnumber                =                    18
(PID.TID 0000.0001) %MON time_secondsf                =   7.7760000000000E+05
(PID.TID 0000.0001) %MON dynstat_eta_max              =   1.2682928986698E+00
(PID.TID 0000.0001) %MON dynstat_eta_min              =  -1.3239455285367E+00
(PID.TID 0000.0001) %MON dynstat_eta_mean             =  -7.7960186659179E-17
(PID.TID 0000.0001) %MON dynstat_eta_sd               =   3.8315593032353E-01
(PID.TID 0000.0001) %MON dynstat_eta_del2             =   2.0036453307953E-02
(PID.TID 0000.0001) %MON dynstat_uvel_max             =   1.8463748835065E-01
(PID.TID 0000.0001) %MON dynstat_uvel_min             =  -1.4757367224313E-01
(PID.TID 0000.0001) %MON dynstat_uvel_mean            =  -1.0120073235186E-02
(PID.TID 0000.0001) %MON dynstat_uvel_sd              =   1.8811089227397E-02
(PID.TID 0000.0001) %MON dynstat_uvel_del2            =   4.7333773070551E-03
(PID.TID 0000.0001) %MON dynstat_vvel_max             =   1.6303094450925E-01
(PID.TID 0000.0001) %MON dynstat_vvel_min             =  -1.4241239671309E-01
(PID.TID 0000.0001) %MON dynstat_vvel_mean            =   3.0750090912183E-03
(PID.TID 0000.0001) %MON dynstat_vvel_sd              =   1.5639969198656E-02
(PID.TID 0000.0001) %MON dynstat_vvel_del2            =   4.9225562492872E-03
(PID.TID 0000.0001) %MON dynstat_wvel_max             =   3.8222626409352E-04
(PID.TID 0000.0001) %MON dynstat_wvel_min             =  -5.0146848251272E-04
(PID.TID 0000.0001) %MON dynstat_wvel_mean            =  -1.0821792990319E-21
(PID.TID 0000.0001) %MON dynstat_wvel_sd              =   4.0586442691296E-05
(PID.TID 0000.0001) %MON dynstat_wvel_del2            =   1.6102841891693E-05
(PID.TID 0000.0001) %MON dynstat_theta_max            =   2.9473499848586E+01
(PID.TID 0000.0001) %MON dynstat_theta_min            =  -1.9379241037482E+00
(PID.TID 0000.0001) %MON dynstat_theta_mean           =   3.5946974420196E+00
(PID.TID 0000.0001) %MON dynstat_theta_sd             =   4.3523010388914E+00
(PID.TID 0000.0001) %MON dynstat_theta_del2           =   1.3609148527949E-01
(PID.TID 0000.0001) %MON dynstat_salt_max             =   3.7425735813509E+01
(PID.TID 0000.0001) %MON dynstat_salt_min             =   2.9799457938398E+01
(PID.TID 0000.0001) %MON dynstat_salt_mean            =   3.4716152148612E+01
(PID.TID 0000.0001) %MON dynstat_salt_sd              =   2.9534132499490E-01
(PID.TID 0000.0001) %MON dynstat_salt_del2            =   2.5309663282909E-02
(PID.TID 0000.0001) %MON advcfl_uvel_max              =   3.4101498369317E-02
(PID.TID 0000.0001) %MON advcfl_vvel_max              =   1.5837148908076E-02
(PID.TID 0000.0001) %MON advcfl_wvel_max              =   1.8821404242862E-01
(PID.TID 0000.0001) %MON advcfl_W_hf_max              =   1.5172400653061E-01
(PID.TID 0000.0001) %MON pe_b_mean                    =   1.8785912869251E-04
(PID.TID 0000.0001) %MON ke_max                       =   1.7090661924626E-02
(PID.TID 0000.0001) %MON ke_mean                      =   3.2135232059613E-04
(PID.TID 0000.0001) %MON ke_vol                       =   1.3226782436723E+18
(PID.TID 0000.0001) %MON vort_r_min                   =  -6.1505833352646E-07
(PID.TID 0000.0001) %MON vort_r_max                   =   7.7959667140255E-07
(PID.TID 0000.0001) %MON vort_a_mean                  =  -2.5205769353998E-05
(PID.TID 0000.0001) %MON vort_a_sd                    =   7.3401307861828E-05
(PID.TID 0000.0001) %MON vort_p_mean                  =  -3.1758669507775E-05
(PID.TID 0000.0001) %MON vort_p_sd                    =   1.3125910420940E-04
(PID.TID 0000.0001) %MON surfExpan_theta_mean         =   6.8708586293788E-05
(PID.TID 0000.0001) %MON surfExpan_salt_mean          =   2.8182215496113E-06
(PID.TID 0000.0001) // =======================================================
(PID.TID 0000.0001) // End MONITOR dynamic field statistics
(PID.TID 0000.0001) // =======================================================
time,SST,SSS,fu,fv,Q,E-P,i0,i1,a,b =   7.7760E+05  5.9632E-01  3.4574E+01 -3.7580E-02 -5.9855E-02  2.6550E+02  0.0000E+00    12     1  8.0000E-01  2.0000E-01
time,fu0,fu1,fu =   7.7760E+05 -4.5368E-02 -3.5633E-02 -3.7580E-02  8.0000E-01  2.0000E-01
 cg2d: Sum(rhs),rhsMax =  -9.90353632435159E-14  1.02854226332890E+01
(PID.TID 0000.0001)                    cg2d_init_res =    7.83476921405321E-01
(PID.TID 0000.0001)                       cg2d_iters =    25
(PID.TID 0000.0001)                         cg2d_res =    2.89423809006806E-14
(PID.TID 0000.0001) // =======================================================
(PID.TID 0000.0001) // Begin MONITOR dynamic field statistics
(PID.TID 0000.0001) // =======================================================
(PID.TID 0000.0001) %MON time_tsnumber                =                    19
(PID.TID 0000.0001) %MON time_secondsf                =   8.2080000000000E+05
(PID.TID 0000.0001) %MON dynstat_eta_max              =   1.2398174595449E+00
(PID.TID 0000.0001) %MON dynstat_eta_min              =  -1.3183821529628E+00
(PID.TID 0000.0001) %MON dynstat_eta_mean             =   1.5974489746116E-17
(PID.TID 0000.0001) %MON dynstat_eta_sd               =   3.8722684315523E-01
(PID.TID 0000.0001) %MON dynstat_eta_del2             =   1.9596441269381E-02
(PID.TID 0000.0001) %MON dynstat_uvel_max             =   1.9077797687331E-01
(PID.TID 0000.0001) %MON dynstat_uvel_min             =  -1.4695700606196E-01
(PID.TID 0000.0001) %MON dynstat_uvel_mean            =  -9.9331477166783E-03
(PID.TID 0000.0001) %MON dynstat_uvel_sd              =   1.9377114309991E-02
(PID.TID 0000.0001) %MON dynstat_uvel_del2            =   4.8477813883419E-03
(PID.TID 0000.0001) %MON dynstat_vvel_max             =   1.6383021687989E-01
(PID.TID 0000.0001) %MON dynstat_vvel_min             =  -1.4406034907774E-01
(PID.TID 0000.0001) %MON dynstat_vvel_mean            =   2.8155161938935E-03
(PID.TID 0000.0001) %MON dynstat_vvel_sd              =   1.5664007817305E-02
(PID.TID 0000.0001) %MON dynstat_vvel_del2            =   5.0117912750141E-03
(PID.TID 0000.0001) %MON dynstat_wvel_max             =   3.8248374935696E-04
(PID.TID 0000.0001) %MON dynstat_wvel_min             =  -5.0420800729446E-04
(PID.TID 0000.0001) %MON dynstat_wvel_mean            =  -1.4587825135469E-22
(PID.TID 0000.0001) %MON dynstat_wvel_sd              =   3.9996482174153E-05
(PID.TID 0000.0001) %MON dynstat_wvel_del2            =   1.5933720247812E-05
(PID.TID 0000.0001) %MON dynstat_theta_max            =   2.9456764360603E+01
(PID.TID 0000.0001) %MON dynstat_theta_min            =  -1.9330911080827E+00
(PID.TID 0000.0001) %MON dynstat_theta_mean           =   3.5941849534364E+00
(PID.TID 0000.0001) %MON dynstat_theta_sd             =   4.3498819341195E+00
(PID.TID 0000.0001) %MON dynstat_theta_del2           =   1.3573569374460E-01
(PID.TID 0000.0001) %MON dynstat_salt_max             =   3.7424439547495E+01
(PID.TID 0000.0001) %MON dynstat_salt_min             =   2.9799768784671E+01
(PID.TID 0000.0001) %MON dynstat_salt_mean            =   3.4716139638904E+01
(PID.TID 0000.0001) %MON dynstat_salt_sd              =   2.9528453673588E-01
(PID.TID 0000.0001) %MON dynstat_salt_del2            =   2.5286825258526E-02
(PID.TID 0000.0001) %MON advcfl_uvel_max              =   3.0090570676160E-02
(PID.TID 0000.0001) %MON advcfl_vvel_max              =   1.5914791809490E-02
(PID.TID 0000.0001) %MON advcfl_wvel_max              =   1.8863404682772E-01
(PID.TID 0000.0001) %MON advcfl_W_hf_max              =   1.6361080767982E-01
(PID.TID 0000.0001) %MON pe_b_mean                    =   1.9187222485320E-04
(PID.TID 0000.0001) %MON ke_max                       =   1.8155266439677E-02
(PID.TID 0000.0001) %MON ke_mean                      =   3.2912117852154E-04
(PID.TID 0000.0001) %MON ke_vol                       =   1.3226782436723E+18
(PID.TID 0000.0001) %MON vort_r_min                   =  -6.4060539698544E-07
(PID.TID 0000.0001) %MON vort_r_max                   =   7.3424408745706E-07
(PID.TID 0000.0001) %MON vort_a_mean                  =  -2.5205769286434E-05
(PID.TID 0000.0001) %MON vort_a_sd                    =   7.3401334597783E-05
(PID.TID 0000.0001) %MON vort_p_mean                  =  -3.1758669422646E-05
(PID.TID 0000.0001) %MON vort_p_sd                    =   1.3125915856335E-04
(PID.TID 0000.0001) %MON surfExpan_theta_mean         =   5.6384770936301E-05
(PID.TID 0000.0001) %MON surfExpan_salt_mean          =   1.7477642693881E-06
(PID.TID 0000.0001) // =======================================================
(PID.TID 0000.0001) // End MONITOR dynamic field statistics
(PID.TID 0000.0001) // =======================================================
time,SST,SSS,fu,fv,Q,E-P,i0,i1,a,b =   8.2080E+05  6.2649E-01  3.4586E+01 -3.7418E-02 -5.9638E-02  2.6552E+02  0.0000E+00    12     1  8.1667E-01  1.8333E-01
time,fu0,fu1,fu =   8.2080E+05 -4.5368E-02 -3.5633E-02 -3.7418E-02  8.1667E-01  1.8333E-01
 cg2d: Sum(rhs),rhsMax =  -6.77305433960385E-14  9.89942675036050E+00
(PID.TID 0000.0001)                    cg2d_init_res =    8.00116489536357E-01
(PID.TID 0000.0001)                       cg2d_iters =    25
(PID.TID 0000.0001)                         cg2d_res =    2.72752615941133E-14
(PID.TID 0000.0001) // =======================================================
(PID.TID 0000.0001) // Begin MONITOR dynamic field statistics
(PID.TID 0000.0001) // =======================================================
(PID.TID 0000.0001) %MON time_tsnumber                =                    20
(PID.TID 0000.0001) %MON time_secondsf                =   8.6400000000000E+05
(PID.TID 0000.0001) %MON dynstat_eta_max              =   1.1926923736771E+00
(PID.TID 0000.0001) %MON dynstat_eta_min              =  -1.2768092049430E+00
(PID.TID 0000.0001) %MON dynstat_eta_mean             =  -7.6267811035200E-17
(PID.TID 0000.0001) %MON dynstat_eta_sd               =   3.8980467585812E-01
(PID.TID 0000.0001) %MON dynstat_eta_del2             =   1.9265001326969E-02
(PID.TID 0000.0001) %MON dynstat_uvel_max             =   1.9607684171551E-01
(PID.TID 0000.0001) %MON dynstat_uvel_min             =  -1.5362269427030E-01
(PID.TID 0000.0001) %MON dynstat_uvel_mean            =  -9.6550731843340E-03
(PID.TID 0000.0001) %MON dynstat_uvel_sd              =   1.9863128873787E-02
(PID.TID 0000.0001) %MON dynstat_uvel_del2            =   4.9480476611796E-03
(PID.TID 0000.0001) %MON dynstat_vvel_max             =   1.5990981411106E-01
(PID.TID 0000.0001) %MON dynstat_vvel_min             =  -1.4412949997629E-01
(PID.TID 0000.0001) %MON dynstat_vvel_mean            =   2.6046035038213E-03
(PID.TID 0000.0001) %MON dynstat_vvel_sd              =   1.5711596742071E-02
(PID.TID 0000.0001) %MON dynstat_vvel_del2            =   5.0886233758715E-03
(PID.TID 0000.0001) %MON dynstat_wvel_max             =   3.8105316090151E-04
(PID.TID 0000.0001) %MON dynstat_wvel_min             =  -5.0340447422616E-04
(PID.TID 0000.0001) %MON dynstat_wvel_mean            =   2.0475242274099E-22
(PID.TID 0000.0001) %MON dynstat_wvel_sd              =   3.9318461874137E-05
(PID.TID 0000.0001) %MON dynstat_wvel_del2            =   1.5713231224464E-05
(PID.TID 0000.0001) %MON dynstat_theta_max            =   2.9453918402031E+01
(PID.TID 0000.0001) %MON dynstat_theta_min            =  -1.9299555784570E+00
(PID.TID 0000.0001) %MON dynstat_theta_mean           =   3.5937980732781E+00
(PID.TID 0000.0001) %MON dynstat_theta_sd             =   4.3478065965776E+00
(PID.TID 0000.0001) %MON dynstat_theta_del2           =   1.3543790164339E-01
(PID.TID 0000.0001) %MON dynstat_salt_max             =   3.7423271958535E+01
(PID.TID 0000.0001) %MON dynstat_salt_min             =   2.9799944615082E+01
(PID.TID 0000.0001) %MON dynstat_salt_mean            =   3.4716137532813E+01
(PID.TID 0000.0001) %MON dynstat_salt_sd              =   2.9523128995615E-01
(PID.TID 0000.0001) %MON dynstat_salt_del2            =   2.5269135569473E-02
(PID.TID 0000.0001) %MON advcfl_uvel_max              =   3.0382303343693E-02
(PID.TID 0000.0001) %MON advcfl_vvel_max              =   1.5533956118348E-02
(PID.TID 0000.0001) %MON advcfl_wvel_max              =   1.8316814029412E-01
(PID.TID 0000.0001) %MON advcfl_W_hf_max              =   1.6675216792009E-01
(PID.TID 0000.0001) %MON pe_b_mean                    =   1.9443537805268E-04
(PID.TID 0000.0001) %MON ke_max                       =   1.9119040345100E-02
(PID.TID 0000.0001) %MON ke_mean                      =   3.3546803634768E-04
(PID.TID 0000.0001) %MON ke_vol                       =   1.3226782436723E+18
(PID.TID 0000.0001) %MON vort_r_min                   =  -6.6243243101589E-07
(PID.TID 0000.0001) %MON vort_r_max                   =   6.7328485442989E-07
(PID.TID 0000.0001) %MON vort_a_mean                  =  -2.5205769219529E-05
(PID.TID 0000.0001) %MON vort_a_sd                    =   7.3401379382225E-05
(PID.TID 0000.0001) %MON vort_p_mean                  =  -3.1758669338346E-05
(PID.TID 0000.0001) %MON vort_p_sd                    =   1.3125927788405E-04
(PID.TID 0000.0001) %MON surfExpan_theta_mean         =   4.4824307568268E-05
(PID.TID 0000.0001) %MON surfExpan_salt_mean          =   7.6963949110385E-07
(PID.TID 0000.0001) // =======================================================
(PID.TID 0000.0001) // End MONITOR dynamic field statistics
(PID.TID 0000.0001) // =======================================================
time,SST,SSS,fu,fv,Q,E-P,i0,i1,a,b =   8.6400E+05  6.5667E-01  3.4598E+01 -3.7255E-02 -5.9422E-02  2.6555E+02  0.0000E+00    12     1  8.3333E-01  1.6667E-01
time,fu0,fu1,fu =   8.6400E+05 -4.5368E-02 -3.5633E-02 -3.7255E-02  8.3333E-01  1.6667E-01
 cg2d: Sum(rhs),rhsMax =   1.82005452376011E-13  1.09313661371494E+01
(PID.TID 0000.0001)                    cg2d_init_res =    7.11714659668752E-01
(PID.TID 0000.0001)                       cg2d_iters =    25
(PID.TID 0000.0001)                         cg2d_res =    3.01288915876558E-14
(PID.TID 0000.0001) // =======================================================
(PID.TID 0000.0001) // Begin MONITOR dynamic field statistics
(PID.TID 0000.0001) // =======================================================
(PID.TID 0000.0001) %MON time_tsnumber                =                    21
(PID.TID 0000.0001) %MON time_secondsf                =   9.0720000000000E+05
(PID.TID 0000.0001) %MON dynstat_eta_max              =   1.3007185096295E+00
(PID.TID 0000.0001) %MON dynstat_eta_min              =  -1.2132106645058E+00
(PID.TID 0000.0001) %MON dynstat_eta_mean             =   2.0933536649191E-17
(PID.TID 0000.0001) %MON dynstat_eta_sd               =   3.9112964175178E-01
(PID.TID 0000.0001) %MON dynstat_eta_del2             =   1.9078483210002E-02
(PID.TID 0000.0001) %MON dynstat_uvel_max             =   2.0043960013193E-01
(PID.TID 0000.0001) %MON dynstat_uvel_min             =  -1.6097227218509E-01
(PID.TID 0000.0001) %MON dynstat_uvel_mean            =  -9.3011976323081E-03
(PID.TID 0000.0001) %MON dynstat_uvel_sd              =   2.0272777761539E-02
(PID.TID 0000.0001) %MON dynstat_uvel_del2            =   5.0362131470448E-03
(PID.TID 0000.0001) %MON dynstat_vvel_max             =   1.5123383417141E-01
(PID.TID 0000.0001) %MON dynstat_vvel_min             =  -1.4339181151127E-01
(PID.TID 0000.0001) %MON dynstat_vvel_mean            =   2.4483210443168E-03
(PID.TID 0000.0001) %MON dynstat_vvel_sd              =   1.5774382096967E-02
(PID.TID 0000.0001) %MON dynstat_vvel_del2            =   5.1546203032727E-03
(PID.TID 0000.0001) %MON dynstat_wvel_max             =   3.7793543065747E-04
(PID.TID 0000.0001) %MON dynstat_wvel_min             =  -4.9896312138800E-04
(PID.TID 0000.0001) %MON dynstat_wvel_mean            =  -2.1288931853317E-22
(PID.TID 0000.0001) %MON dynstat_wvel_sd              =   3.8574237628782E-05
(PID.TID 0000.0001) %MON dynstat_wvel_del2            =   1.5451793747700E-05
(PID.TID 0000.0001) %MON dynstat_theta_max            =   2.9455893679408E+01
(PID.TID 0000.0001) %MON dynstat_theta_min            =  -1.9286646501755E+00
(PID.TID 0000.0001) %MON dynstat_theta_mean           =   3.5935246830561E+00
(PID.TID 0000.0001) %MON dynstat_theta_sd             =   4.3460785080234E+00
(PID.TID 0000.0001) %MON dynstat_theta_del2           =   1.3521069795008E-01
(PID.TID 0000.0001) %MON dynstat_salt_max             =   3.7422184122342E+01
(PID.TID 0000.0001) %MON dynstat_salt_min             =   2.9800023117276E+01
(PID.TID 0000.0001) %MON dynstat_salt_mean            =   3.4716144528620E+01
(PID.TID 0000.0001) %MON dynstat_salt_sd              =   2.9518124434047E-01
(PID.TID 0000.0001) %MON dynstat_salt_del2            =   2.5255350290350E-02
(PID.TID 0000.0001) %MON advcfl_uvel_max              =   3.0395923025993E-02
(PID.TID 0000.0001) %MON advcfl_vvel_max              =   1.4691154240206E-02
(PID.TID 0000.0001) %MON advcfl_wvel_max              =   1.7166046488237E-01
(PID.TID 0000.0001) %MON advcfl_W_hf_max              =   1.6291635740035E-01
(PID.TID 0000.0001) %MON pe_b_mean                    =   1.9575941592380E-04
(PID.TID 0000.0001) %MON ke_max                       =   1.9980507962294E-02
(PID.TID 0000.0001) %MON ke_mean                      =   3.4042307331463E-04
(PID.TID 0000.0001) %MON ke_vol                       =   1.3226782436723E+18
(PID.TID 0000.0001) %MON vort_r_min                   =  -6.8055437821061E-07
(PID.TID 0000.0001) %MON vort_r_max                   =   6.0920329030776E-07
(PID.TID 0000.0001) %MON vort_a_mean                  =  -2.5205769158280E-05
(PID.TID 0000.0001) %MON vort_a_sd                    =   7.3401439680260E-05
(PID.TID 0000.0001) %MON vort_p_mean                  =  -3.1758669261174E-05
(PID.TID 0000.0001) %MON vort_p_sd                    =   1.3125944733987E-04
(PID.TID 0000.0001) %MON surfExpan_theta_mean         =   3.4216890906344E-05
(PID.TID 0000.0001) %MON surfExpan_salt_mean          =  -1.0379656457843E-07
(PID.TID 0000.0001) // =======================================================
(PID.TID 0000.0001) // End MONITOR dynamic field statistics
(PID.TID 0000.0001) // =======================================================
time,SST,SSS,fu,fv,Q,E-P,i0,i1,a,b =   9.0720E+05  6.8684E-01  3.4609E+01 -3.7093E-02 -5.9205E-02  2.6557E+02  0.0000E+00    12     1  8.5000E-01  1.5000E-01
time,fu0,fu1,fu =   9.0720E+05 -4.5368E-02 -3.5633E-02 -3.7093E-02  8.5000E-01  1.5000E-01
 cg2d: Sum(rhs),rhsMax =  -3.39242522962024E-14  1.18621214870375E+01
(PID.TID 0000.0001)                    cg2d_init_res =    6.43345654589045E-01
(PID.TID 0000.0001)                       cg2d_iters =    25
(PID.TID 0000.0001)                         cg2d_res =    3.11563597485713E-14
(PID.TID 0000.0001) // =======================================================
(PID.TID 0000.0001) // Begin MONITOR dynamic field statistics
(PID.TID 0000.0001) // =======================================================
(PID.TID 0000.0001) %MON time_tsnumber                =                    22
(PID.TID 0000.0001) %MON time_secondsf                =   9.5040000000000E+05
(PID.TID 0000.0001) %MON dynstat_eta_max              =   1.4078293745500E+00
(PID.TID 0000.0001) %MON dynstat_eta_min              =  -1.1673559101484E+00
(PID.TID 0000.0001) %MON dynstat_eta_mean             =   1.3762532548499E-16
(PID.TID 0000.0001) %MON dynstat_eta_sd               =   3.9143742480593E-01
(PID.TID 0000.0001) %MON dynstat_eta_del2             =   1.8988775590200E-02
(PID.TID 0000.0001) %MON dynstat_uvel_max             =   2.0377215640352E-01
(PID.TID 0000.0001) %MON dynstat_uvel_min             =  -1.7728210359536E-01
(PID.TID 0000.0001) %MON dynstat_uvel_mean            =  -8.8873338692350E-03
(PID.TID 0000.0001) %MON dynstat_uvel_sd              =   2.0608893399216E-02
(PID.TID 0000.0001) %MON dynstat_uvel_del2            =   5.1117708832115E-03
(PID.TID 0000.0001) %MON dynstat_vvel_max             =   1.4205322944355E-01
(PID.TID 0000.0001) %MON dynstat_vvel_min             =  -1.4861279366066E-01
(PID.TID 0000.0001) %MON dynstat_vvel_mean            =   2.3492859430279E-03
(PID.TID 0000.0001) %MON dynstat_vvel_sd              =   1.5845233068020E-02
(PID.TID 0000.0001) %MON dynstat_vvel_del2            =   5.2089700909699E-03
(PID.TID 0000.0001) %MON dynstat_wvel_max             =   3.7317469229063E-04
(PID.TID 0000.0001) %MON dynstat_wvel_min             =  -4.9079444662093E-04
(PID.TID 0000.0001) %MON dynstat_wvel_mean            =   6.3751908231520E-22
(PID.TID 0000.0001) %MON dynstat_wvel_sd              =   3.7785392642960E-05
(PID.TID 0000.0001) %MON dynstat_wvel_del2            =   1.5156511221350E-05
(PID.TID 0000.0001) %MON dynstat_theta_max            =   2.9458020708741E+01
(PID.TID 0000.0001) %MON dynstat_theta_min            =  -1.9289742314656E+00
(PID.TID 0000.0001) %MON dynstat_theta_mean           =   3.5933512731640E+00
(PID.TID 0000.0001) %MON dynstat_theta_sd             =   4.3446936170132E+00
(PID.TID 0000.0001) %MON dynstat_theta_del2           =   1.3504329214983E-01
(PID.TID 0000.0001) %MON dynstat_salt_max             =   3.7421141649594E+01
(PID.TID 0000.0001) %MON dynstat_salt_min             =   2.9800047031404E+01
(PID.TID 0000.0001) %MON dynstat_salt_mean            =   3.4716159223127E+01
(PID.TID 0000.0001) %MON dynstat_salt_sd              =   2.9513361129323E-01
(PID.TID 0000.0001) %MON dynstat_salt_del2            =   2.5243136303333E-02
(PID.TID 0000.0001) %MON advcfl_uvel_max              =   3.0352356187429E-02
(PID.TID 0000.0001) %MON advcfl_vvel_max              =   1.4436541172805E-02
(PID.TID 0000.0001) %MON advcfl_wvel_max              =   1.5423964548563E-01
(PID.TID 0000.0001) %MON advcfl_W_hf_max              =   1.4371102616316E-01
(PID.TID 0000.0001) %MON pe_b_mean                    =   1.9606762645374E-04
(PID.TID 0000.0001) %MON ke_max                       =   2.0740359782893E-02
(PID.TID 0000.0001) %MON ke_mean                      =   3.4403836537372E-04
(PID.TID 0000.0001) %MON ke_vol                       =   1.3226782436723E+18
(PID.TID 0000.0001) %MON vort_r_min                   =  -6.9516817015281E-07
(PID.TID 0000.0001) %MON vort_r_max                   =   6.2511341284631E-07
(PID.TID 0000.0001) %MON vort_a_mean                  =  -2.5205769106625E-05
(PID.TID 0000.0001) %MON vort_a_sd                    =   7.3401512819468E-05
(PID.TID 0000.0001) %MON vort_p_mean                  =  -3.1758669196090E-05
(PID.TID 0000.0001) %MON vort_p_sd                    =   1.3125965271580E-04
(PID.TID 0000.0001) %MON surfExpan_theta_mean         =   2.4721180061046E-05
(PID.TID 0000.0001) %MON surfExpan_salt_mean          =  -8.6046311027543E-07
(PID.TID 0000.0001) // =======================================================
(PID.TID 0000.0001) // End MONITOR dynamic field statistics
(PID.TID 0000.0001) // =======================================================
time,SST,SSS,fu,fv,Q,E-P,i0,i1,a,b =   9.5040E+05  7.1702E-01  3.4621E+01 -3.6931E-02 -5.8989E-02  2.6559E+02  0.0000E+00    12     1  8.6667E-01  1.3333E-01
time,fu0,fu1,fu =   9.5040E+05 -4.5368E-02 -3.5633E-02 -3.6931E-02  8.6667E-01  1.3333E-01
 cg2d: Sum(rhs),rhsMax =   9.39578276293318E-14  1.26581340407884E+01
(PID.TID 0000.0001)                    cg2d_init_res =    5.90613205143359E-01
(PID.TID 0000.0001)                       cg2d_iters =    25
(PID.TID 0000.0001)                         cg2d_res =    3.12549720497622E-14
(PID.TID 0000.0001) // =======================================================
(PID.TID 0000.0001) // Begin MONITOR dynamic field statistics
(PID.TID 0000.0001) // =======================================================
(PID.TID 0000.0001) %MON time_tsnumber                =                    23
(PID.TID 0000.0001) %MON time_secondsf                =   9.9360000000000E+05
(PID.TID 0000.0001) %MON dynstat_eta_max              =   1.4990152776626E+00
(PID.TID 0000.0001) %MON dynstat_eta_min              =  -1.1212182152407E+00
(PID.TID 0000.0001) %MON dynstat_eta_mean             =   2.0034062095577E-16
(PID.TID 0000.0001) %MON dynstat_eta_sd               =   3.9094963910523E-01
(PID.TID 0000.0001) %MON dynstat_eta_del2             =   1.8869918578227E-02
(PID.TID 0000.0001) %MON dynstat_uvel_max             =   2.0637728172617E-01
(PID.TID 0000.0001) %MON dynstat_uvel_min             =  -1.9118188969741E-01
(PID.TID 0000.0001) %MON dynstat_uvel_mean            =  -8.4291263358904E-03
(PID.TID 0000.0001) %MON dynstat_uvel_sd              =   2.0873480970367E-02
(PID.TID 0000.0001) %MON dynstat_uvel_del2            =   5.1778077623062E-03
(PID.TID 0000.0001) %MON dynstat_vvel_max             =   1.4153738573037E-01
(PID.TID 0000.0001) %MON dynstat_vvel_min             =  -1.5038273324305E-01
(PID.TID 0000.0001) %MON dynstat_vvel_mean            =   2.3069936104906E-03
(PID.TID 0000.0001) %MON dynstat_vvel_sd              =   1.5919505989033E-02
(PID.TID 0000.0001) %MON dynstat_vvel_del2            =   5.2514909617407E-03
(PID.TID 0000.0001) %MON dynstat_wvel_max             =   3.8153212144371E-04
(PID.TID 0000.0001) %MON dynstat_wvel_min             =  -4.7891208154700E-04
(PID.TID 0000.0001) %MON dynstat_wvel_mean            =   3.0362495194305E-22
(PID.TID 0000.0001) %MON dynstat_wvel_sd              =   3.6974333772241E-05
(PID.TID 0000.0001) %MON dynstat_wvel_del2            =   1.4843029701032E-05
(PID.TID 0000.0001) %MON dynstat_theta_max            =   2.9460230035889E+01
(PID.TID 0000.0001) %MON dynstat_theta_min            =  -1.9295861348448E+00
(PID.TID 0000.0001) %MON dynstat_theta_mean           =   3.5932632140303E+00
(PID.TID 0000.0001) %MON dynstat_theta_sd             =   4.3436396788330E+00
(PID.TID 0000.0001) %MON dynstat_theta_del2           =   1.3491601983764E-01
(PID.TID 0000.0001) %MON dynstat_salt_max             =   3.7420124825868E+01
(PID.TID 0000.0001) %MON dynstat_salt_min             =   2.9800078859256E+01
(PID.TID 0000.0001) %MON dynstat_salt_mean            =   3.4716180095291E+01
(PID.TID 0000.0001) %MON dynstat_salt_sd              =   2.9508745907329E-01
(PID.TID 0000.0001) %MON dynstat_salt_del2            =   2.5231982073688E-02
(PID.TID 0000.0001) %MON advcfl_uvel_max              =   3.0999693161162E-02
(PID.TID 0000.0001) %MON advcfl_vvel_max              =   1.4608476610025E-02
(PID.TID 0000.0001) %MON advcfl_wvel_max              =   1.6401152013128E-01
(PID.TID 0000.0001) %MON advcfl_W_hf_max              =   1.5007860082410E-01
(PID.TID 0000.0001) %MON pe_b_mean                    =   1.9557927562813E-04
(PID.TID 0000.0001) %MON ke_max                       =   2.1399888067115E-02
(PID.TID 0000.0001) %MON ke_mean                      =   3.4639079017013E-04
(PID.TID 0000.0001) %MON ke_vol                       =   1.3226782436723E+18
(PID.TID 0000.0001) %MON vort_r_min                   =  -7.0752766745345E-07
(PID.TID 0000.0001) %MON vort_r_max                   =   6.4154204314027E-07
(PID.TID 0000.0001) %MON vort_a_mean                  =  -2.5205769067268E-05
(PID.TID 0000.0001) %MON vort_a_sd                    =   7.3401596100224E-05
(PID.TID 0000.0001) %MON vort_p_mean                  =  -3.1758669146502E-05
(PID.TID 0000.0001) %MON vort_p_sd                    =   1.3125988123972E-04
(PID.TID 0000.0001) %MON surfExpan_theta_mean         =   1.6457021055745E-05
(PID.TID 0000.0001) %MON surfExpan_salt_mean          =  -1.4890556246032E-06
(PID.TID 0000.0001) // =======================================================
(PID.TID 0000.0001) // End MONITOR dynamic field statistics
(PID.TID 0000.0001) // =======================================================
time,SST,SSS,fu,fv,Q,E-P,i0,i1,a,b =   9.9360E+05  7.4719E-01  3.4633E+01 -3.6769E-02 -5.8772E-02  2.6561E+02  0.0000E+00    12     1  8.8333E-01  1.1667E-01
time,fu0,fu1,fu =   9.9360E+05 -4.5368E-02 -3.5633E-02 -3.6769E-02  8.8333E-01  1.1667E-01
 cg2d: Sum(rhs),rhsMax =   2.84893636459671E-14  1.32897167539282E+01
(PID.TID 0000.0001)                    cg2d_init_res =    5.51067981861586E-01
(PID.TID 0000.0001)                       cg2d_iters =    25
(PID.TID 0000.0001)                         cg2d_res =    3.06771709995605E-14
(PID.TID 0000.0001) // =======================================================
(PID.TID 0000.0001) // Begin MONITOR dynamic field statistics
(PID.TID 0000.0001) // =======================================================
(PID.TID 0000.0001) %MON time_tsnumber                =                    24
(PID.TID 0000.0001) %MON time_secondsf                =   1.0368000000000E+06
(PID.TID 0000.0001) %MON dynstat_eta_max              =   1.5708985675434E+00
(PID.TID 0000.0001) %MON dynstat_eta_min              =  -1.1420600705944E+00
(PID.TID 0000.0001) %MON dynstat_eta_mean             =   9.1150911148049E-17
(PID.TID 0000.0001) %MON dynstat_eta_sd               =   3.8986955000369E-01
(PID.TID 0000.0001) %MON dynstat_eta_del2             =   1.8730867247911E-02
(PID.TID 0000.0001) %MON dynstat_uvel_max             =   2.0822867339782E-01
(PID.TID 0000.0001) %MON dynstat_uvel_min             =  -2.0212690731157E-01
(PID.TID 0000.0001) %MON dynstat_uvel_mean            =  -7.9415545233737E-03
(PID.TID 0000.0001) %MON dynstat_uvel_sd              =   2.1067944376920E-02
(PID.TID 0000.0001) %MON dynstat_uvel_del2            =   5.2395419578150E-03
(PID.TID 0000.0001) %MON dynstat_vvel_max             =   1.4447396810775E-01
(PID.TID 0000.0001) %MON dynstat_vvel_min             =  -1.5048455532575E-01
(PID.TID 0000.0001) %MON dynstat_vvel_mean            =   2.3182390901780E-03
(PID.TID 0000.0001) %MON dynstat_vvel_sd              =   1.5995239788132E-02
(PID.TID 0000.0001) %MON dynstat_vvel_del2            =   5.2845744378039E-03
(PID.TID 0000.0001) %MON dynstat_wvel_max             =   3.9328218174573E-04
(PID.TID 0000.0001) %MON dynstat_wvel_min             =  -4.6349295262053E-04
(PID.TID 0000.0001) %MON dynstat_wvel_mean            =   5.6954983442300E-23
(PID.TID 0000.0001) %MON dynstat_wvel_sd              =   3.6165376676460E-05
(PID.TID 0000.0001) %MON dynstat_wvel_del2            =   1.4520925891013E-05
(PID.TID 0000.0001) %MON dynstat_theta_max            =   2.9462359185831E+01
(PID.TID 0000.0001) %MON dynstat_theta_min            =  -1.9307204016451E+00
(PID.TID 0000.0001) %MON dynstat_theta_mean           =   3.5932453222532E+00
(PID.TID 0000.0001) %MON dynstat_theta_sd             =   4.3428970852817E+00
(PID.TID 0000.0001) %MON dynstat_theta_del2           =   1.3481075698969E-01
(PID.TID 0000.0001) %MON dynstat_salt_max             =   3.7419116058254E+01
(PID.TID 0000.0001) %MON dynstat_salt_min             =   2.9800132740454E+01
(PID.TID 0000.0001) %MON dynstat_salt_mean            =   3.4716205534703E+01
(PID.TID 0000.0001) %MON dynstat_salt_sd              =   2.9504176544987E-01
(PID.TID 0000.0001) %MON dynstat_salt_del2            =   2.5222384781838E-02
(PID.TID 0000.0001) %MON advcfl_uvel_max              =   3.1482617581312E-02
(PID.TID 0000.0001) %MON advcfl_vvel_max              =   1.4618367808845E-02
(PID.TID 0000.0001) %MON advcfl_wvel_max              =   1.7731655831738E-01
(PID.TID 0000.0001) %MON advcfl_W_hf_max              =   1.5433995129826E-01
(PID.TID 0000.0001) %MON pe_b_mean                    =   1.9450010215397E-04
(PID.TID 0000.0001) %MON ke_max                       =   2.1959509411000E-02
(PID.TID 0000.0001) %MON ke_mean                      =   3.4757838664547E-04
(PID.TID 0000.0001) %MON ke_vol                       =   1.3226782436723E+18
(PID.TID 0000.0001) %MON vort_r_min                   =  -7.2335581335358E-07
(PID.TID 0000.0001) %MON vort_r_max                   =   6.5322093660923E-07
(PID.TID 0000.0001) %MON vort_a_mean                  =  -2.5205769041693E-05
(PID.TID 0000.0001) %MON vort_a_sd                    =   7.3401686882686E-05
(PID.TID 0000.0001) %MON vort_p_mean                  =  -3.1758669114278E-05
(PID.TID 0000.0001) %MON vort_p_sd                    =   1.3126012209863E-04
(PID.TID 0000.0001) %MON surfExpan_theta_mean         =   9.4953820823915E-06
(PID.TID 0000.0001) %MON surfExpan_salt_mean          =  -1.9813449270990E-06
(PID.TID 0000.0001) // =======================================================
(PID.TID 0000.0001) // End MONITOR dynamic field statistics
(PID.TID 0000.0001) // =======================================================
time,SST,SSS,fu,fv,Q,E-P,i0,i1,a,b =   1.0368E+06  7.7737E-01  3.4644E+01 -3.6606E-02 -5.8556E-02  2.6564E+02  0.0000E+00    12     1  9.0000E-01  1.0000E-01
time,fu0,fu1,fu =   1.0368E+06 -4.5368E-02 -3.5633E-02 -3.6606E-02  9.0000E-01  1.0000E-01
 cg2d: Sum(rhs),rhsMax =  -8.04478011984244E-14  1.37323322818653E+01
(PID.TID 0000.0001)                    cg2d_init_res =    5.23673486690482E-01
(PID.TID 0000.0001)                       cg2d_iters =    25
(PID.TID 0000.0001)                         cg2d_res =    2.95860314594383E-14
(PID.TID 0000.0001) // =======================================================
(PID.TID 0000.0001) // Begin MONITOR dynamic field statistics
(PID.TID 0000.0001) // =======================================================
(PID.TID 0000.0001) %MON time_tsnumber                =                    25
(PID.TID 0000.0001) %MON time_secondsf                =   1.0800000000000E+06
(PID.TID 0000.0001) %MON dynstat_eta_max              =   1.6206954058701E+00
(PID.TID 0000.0001) %MON dynstat_eta_min              =  -1.1413636863507E+00
(PID.TID 0000.0001) %MON dynstat_eta_mean             =   5.9087564654518E-17
(PID.TID 0000.0001) %MON dynstat_eta_sd               =   3.8838353559927E-01
(PID.TID 0000.0001) %MON dynstat_eta_del2             =   1.8609386971672E-02
(PID.TID 0000.0001) %MON dynstat_uvel_max             =   2.0883203496102E-01
(PID.TID 0000.0001) %MON dynstat_uvel_min             =  -2.0967224332372E-01
(PID.TID 0000.0001) %MON dynstat_uvel_mean            =  -7.4385671393598E-03
(PID.TID 0000.0001) %MON dynstat_uvel_sd              =   2.1193451788802E-02
(PID.TID 0000.0001) %MON dynstat_uvel_del2            =   5.2964262707691E-03
(PID.TID 0000.0001) %MON dynstat_vvel_max             =   1.4775321101034E-01
(PID.TID 0000.0001) %MON dynstat_vvel_min             =  -1.4919193391663E-01
(PID.TID 0000.0001) %MON dynstat_vvel_mean            =   2.3775906651572E-03
(PID.TID 0000.0001) %MON dynstat_vvel_sd              =   1.6072456382695E-02
(PID.TID 0000.0001) %MON dynstat_vvel_del2            =   5.3061396241551E-03
(PID.TID 0000.0001) %MON dynstat_wvel_max             =   4.0210225967284E-04
(PID.TID 0000.0001) %MON dynstat_wvel_min             =  -4.4488448818656E-04
(PID.TID 0000.0001) %MON dynstat_wvel_mean            =  -4.7812597013026E-22
(PID.TID 0000.0001) %MON dynstat_wvel_sd              =   3.5384657479682E-05
(PID.TID 0000.0001) %MON dynstat_wvel_del2            =   1.4199683756606E-05
(PID.TID 0000.0001) %MON dynstat_theta_max            =   2.9464237239268E+01
(PID.TID 0000.0001) %MON dynstat_theta_min            =  -1.9322978463134E+00
(PID.TID 0000.0001) %MON dynstat_theta_mean           =   3.5932824138549E+00
(PID.TID 0000.0001) %MON dynstat_theta_sd             =   4.3424412529849E+00
(PID.TID 0000.0001) %MON dynstat_theta_del2           =   1.3471583023627E-01
(PID.TID 0000.0001) %MON dynstat_salt_max             =   3.7418113630226E+01
(PID.TID 0000.0001) %MON dynstat_salt_min             =   2.9800230596692E+01
(PID.TID 0000.0001) %MON dynstat_salt_mean            =   3.4716233899150E+01
(PID.TID 0000.0001) %MON dynstat_salt_sd              =   2.9499567905716E-01
(PID.TID 0000.0001) %MON dynstat_salt_del2            =   2.5209762163426E-02
(PID.TID 0000.0001) %MON advcfl_uvel_max              =   3.1802367133242E-02
(PID.TID 0000.0001) %MON advcfl_vvel_max              =   1.4492800004526E-02
(PID.TID 0000.0001) %MON advcfl_wvel_max              =   1.8416251618386E-01
(PID.TID 0000.0001) %MON advcfl_W_hf_max              =   1.4682937924118E-01
(PID.TID 0000.0001) %MON pe_b_mean                    =   1.9302022702774E-04
(PID.TID 0000.0001) %MON ke_max                       =   2.2417568818783E-02
(PID.TID 0000.0001) %MON ke_mean                      =   3.4771032167199E-04
(PID.TID 0000.0001) %MON ke_vol                       =   1.3226782436723E+18
(PID.TID 0000.0001) %MON vort_r_min                   =  -7.3511385797028E-07
(PID.TID 0000.0001) %MON vort_r_max                   =   6.5969946409631E-07
(PID.TID 0000.0001) %MON vort_a_mean                  =  -2.5205769029989E-05
(PID.TID 0000.0001) %MON vort_a_sd                    =   7.3401782654363E-05
(PID.TID 0000.0001) %MON vort_p_mean                  =  -3.1758669099530E-05
(PID.TID 0000.0001) %MON vort_p_sd                    =   1.3126036666086E-04
(PID.TID 0000.0001) %MON surfExpan_theta_mean         =   3.8662575743098E-06
(PID.TID 0000.0001) %MON surfExpan_salt_mean          =  -2.3304503653975E-06
(PID.TID 0000.0001) // =======================================================
(PID.TID 0000.0001) // End MONITOR dynamic field statistics
(PID.TID 0000.0001) // =======================================================
time,SST,SSS,fu,fv,Q,E-P,i0,i1,a,b =   1.0800E+06  8.0755E-01  3.4656E+01 -3.6444E-02 -5.8339E-02  2.6566E+02  0.0000E+00    12     1  9.1667E-01  8.3333E-02
time,fu0,fu1,fu =   1.0800E+06 -4.5368E-02 -3.5633E-02 -3.6444E-02  9.1667E-01  8.3333E-02
 cg2d: Sum(rhs),rhsMax =  -2.01921812603700E-15  1.39675819284278E+01
(PID.TID 0000.0001)                    cg2d_init_res =    5.08227483096607E-01
(PID.TID 0000.0001)                       cg2d_iters =    25
(PID.TID 0000.0001)                         cg2d_res =    2.81795021082405E-14
(PID.TID 0000.0001) // =======================================================
(PID.TID 0000.0001) // Begin MONITOR dynamic field statistics
(PID.TID 0000.0001) // =======================================================
(PID.TID 0000.0001) %MON time_tsnumber                =                    26
(PID.TID 0000.0001) %MON time_secondsf                =   1.1232000000000E+06
(PID.TID 0000.0001) %MON dynstat_eta_max              =   1.6463284432022E+00
(PID.TID 0000.0001) %MON dynstat_eta_min              =  -1.1206677444687E+00
(PID.TID 0000.0001) %MON dynstat_eta_mean             =  -6.3536105723832E-17
(PID.TID 0000.0001) %MON dynstat_eta_sd               =   3.8666661529546E-01
(PID.TID 0000.0001) %MON dynstat_eta_del2             =   1.8470184067996E-02
(PID.TID 0000.0001) %MON dynstat_uvel_max             =   2.0815515500208E-01
(PID.TID 0000.0001) %MON dynstat_uvel_min             =  -2.1349129929398E-01
(PID.TID 0000.0001) %MON dynstat_uvel_mean            =  -6.9328157792562E-03
(PID.TID 0000.0001) %MON dynstat_uvel_sd              =   2.1251344903041E-02
(PID.TID 0000.0001) %MON dynstat_uvel_del2            =   5.3509093338918E-03
(PID.TID 0000.0001) %MON dynstat_vvel_max             =   1.5049912710512E-01
(PID.TID 0000.0001) %MON dynstat_vvel_min             =  -1.4552409718678E-01
(PID.TID 0000.0001) %MON dynstat_vvel_mean            =   2.4778900299736E-03
(PID.TID 0000.0001) %MON dynstat_vvel_sd              =   1.6151929775159E-02
(PID.TID 0000.0001) %MON dynstat_vvel_del2            =   5.3184975932396E-03
(PID.TID 0000.0001) %MON dynstat_wvel_max             =   4.0802413171759E-04
(PID.TID 0000.0001) %MON dynstat_wvel_min             =  -4.2357650186952E-04
(PID.TID 0000.0001) %MON dynstat_wvel_mean            =   6.6335434523711E-22
(PID.TID 0000.0001) %MON dynstat_wvel_sd              =   3.4658048786167E-05
(PID.TID 0000.0001) %MON dynstat_wvel_del2            =   1.3887631648594E-05
(PID.TID 0000.0001) %MON dynstat_theta_max            =   2.9465724823539E+01
(PID.TID 0000.0001) %MON dynstat_theta_min            =  -1.9341599494195E+00
(PID.TID 0000.0001) %MON dynstat_theta_mean           =   3.5933597430637E+00
(PID.TID 0000.0001) %MON dynstat_theta_sd             =   4.3422427297352E+00
(PID.TID 0000.0001) %MON dynstat_theta_del2           =   1.3463296006886E-01
(PID.TID 0000.0001) %MON dynstat_salt_max             =   3.7417117798704E+01
(PID.TID 0000.0001) %MON dynstat_salt_min             =   2.9800388647919E+01
(PID.TID 0000.0001) %MON dynstat_salt_mean            =   3.4716263528086E+01
(PID.TID 0000.0001) %MON dynstat_salt_sd              =   2.9494817722770E-01
(PID.TID 0000.0001) %MON dynstat_salt_del2            =   2.5195484114307E-02
(PID.TID 0000.0001) %MON advcfl_uvel_max              =   3.1978596017488E-02
(PID.TID 0000.0001) %MON advcfl_vvel_max              =   1.4619783340359E-02
(PID.TID 0000.0001) %MON advcfl_wvel_max              =   1.8404548272922E-01
(PID.TID 0000.0001) %MON advcfl_W_hf_max              =   1.3949090346323E-01
(PID.TID 0000.0001) %MON pe_b_mean                    =   1.9131743682856E-04
(PID.TID 0000.0001) %MON ke_max                       =   2.2769618982817E-02
(PID.TID 0000.0001) %MON ke_mean                      =   3.4689294612335E-04
(PID.TID 0000.0001) %MON ke_vol                       =   1.3226782436723E+18
(PID.TID 0000.0001) %MON vort_r_min                   =  -7.4277715668832E-07
(PID.TID 0000.0001) %MON vort_r_max                   =   6.6110126814789E-07
(PID.TID 0000.0001) %MON vort_a_mean                  =  -2.5205769031339E-05
(PID.TID 0000.0001) %MON vort_a_sd                    =   7.3401881074794E-05
(PID.TID 0000.0001) %MON vort_p_mean                  =  -3.1758669101232E-05
(PID.TID 0000.0001) %MON vort_p_sd                    =   1.3126060843088E-04
(PID.TID 0000.0001) %MON surfExpan_theta_mean         =  -4.5315938622680E-07
(PID.TID 0000.0001) %MON surfExpan_salt_mean          =  -2.5343641553168E-06
(PID.TID 0000.0001) // =======================================================
(PID.TID 0000.0001) // End MONITOR dynamic field statistics
(PID.TID 0000.0001) // =======================================================
time,SST,SSS,fu,fv,Q,E-P,i0,i1,a,b =   1.1232E+06  8.3772E-01  3.4668E+01 -3.6282E-02 -5.8123E-02  2.6568E+02  0.0000E+00    12     1  9.3333E-01  6.6667E-02
time,fu0,fu1,fu =   1.1232E+06 -4.5368E-02 -3.5633E-02 -3.6282E-02  9.3333E-01  6.6667E-02
 cg2d: Sum(rhs),rhsMax =   7.35383975936088E-14  1.39838979559027E+01
(PID.TID 0000.0001)                    cg2d_init_res =    5.04783558946264E-01
(PID.TID 0000.0001)                       cg2d_iters =    25
(PID.TID 0000.0001)                         cg2d_res =    2.64033693686334E-14
(PID.TID 0000.0001) // =======================================================
(PID.TID 0000.0001) // Begin MONITOR dynamic field statistics
(PID.TID 0000.0001) // =======================================================
(PID.TID 0000.0001) %MON time_tsnumber                =                    27
(PID.TID 0000.0001) %MON time_secondsf                =   1.1664000000000E+06
(PID.TID 0000.0001) %MON dynstat_eta_max              =   1.6465067281884E+00
(PID.TID 0000.0001) %MON dynstat_eta_min              =  -1.0883651039427E+00
(PID.TID 0000.0001) %MON dynstat_eta_mean             =   1.2562104657190E-16
(PID.TID 0000.0001) %MON dynstat_eta_sd               =   3.8488866734156E-01
(PID.TID 0000.0001) %MON dynstat_eta_del2             =   1.8405063636963E-02
(PID.TID 0000.0001) %MON dynstat_uvel_max             =   2.0617640599614E-01
(PID.TID 0000.0001) %MON dynstat_uvel_min             =  -2.1339074537561E-01
(PID.TID 0000.0001) %MON dynstat_uvel_mean            =  -6.4354736426533E-03
(PID.TID 0000.0001) %MON dynstat_uvel_sd              =   2.1243524470590E-02
(PID.TID 0000.0001) %MON dynstat_uvel_del2            =   5.4055601043671E-03
(PID.TID 0000.0001) %MON dynstat_vvel_max             =   1.5274790929678E-01
(PID.TID 0000.0001) %MON dynstat_vvel_min             =  -1.5198853464206E-01
(PID.TID 0000.0001) %MON dynstat_vvel_mean            =   2.6107466943809E-03
(PID.TID 0000.0001) %MON dynstat_vvel_sd              =   1.6233873278292E-02
(PID.TID 0000.0001) %MON dynstat_vvel_del2            =   5.3256385011590E-03
(PID.TID 0000.0001) %MON dynstat_wvel_max             =   4.1112432733203E-04
(PID.TID 0000.0001) %MON dynstat_wvel_min             =  -4.0014499390088E-04
(PID.TID 0000.0001) %MON dynstat_wvel_mean            =   4.5803063856088E-24
(PID.TID 0000.0001) %MON dynstat_wvel_sd              =   3.4007573298294E-05
(PID.TID 0000.0001) %MON dynstat_wvel_del2            =   1.3591120426986E-05
(PID.TID 0000.0001) %MON dynstat_theta_max            =   2.9466748055137E+01
(PID.TID 0000.0001) %MON dynstat_theta_min            =  -1.9361456432297E+00
(PID.TID 0000.0001) %MON dynstat_theta_mean           =   3.5934636135184E+00
(PID.TID 0000.0001) %MON dynstat_theta_sd             =   4.3422685875905E+00
(PID.TID 0000.0001) %MON dynstat_theta_del2           =   1.3458369702217E-01
(PID.TID 0000.0001) %MON dynstat_salt_max             =   3.7416127650906E+01
(PID.TID 0000.0001) %MON dynstat_salt_min             =   2.9800617235652E+01
(PID.TID 0000.0001) %MON dynstat_salt_mean            =   3.4716292831788E+01
(PID.TID 0000.0001) %MON dynstat_salt_sd              =   2.9489921058477E-01
(PID.TID 0000.0001) %MON dynstat_salt_del2            =   2.5181935794085E-02
(PID.TID 0000.0001) %MON advcfl_uvel_max              =   3.2537600647081E-02
(PID.TID 0000.0001) %MON advcfl_vvel_max              =   1.4838234497213E-02
(PID.TID 0000.0001) %MON advcfl_wvel_max              =   1.7681960873410E-01
(PID.TID 0000.0001) %MON advcfl_W_hf_max              =   1.3360306557268E-01
(PID.TID 0000.0001) %MON pe_b_mean                    =   1.8956207240179E-04
(PID.TID 0000.0001) %MON ke_max                       =   2.3008258019993E-02
(PID.TID 0000.0001) %MON ke_mean                      =   3.4521632118871E-04
(PID.TID 0000.0001) %MON ke_vol                       =   1.3226782436723E+18
(PID.TID 0000.0001) %MON vort_r_min                   =  -7.4637697746672E-07
(PID.TID 0000.0001) %MON vort_r_max                   =   6.5774106650936E-07
(PID.TID 0000.0001) %MON vort_a_mean                  =  -2.5205769044021E-05
(PID.TID 0000.0001) %MON vort_a_sd                    =   7.3401980011590E-05
(PID.TID 0000.0001) %MON vort_p_mean                  =  -3.1758669117211E-05
(PID.TID 0000.0001) %MON vort_p_sd                    =   1.3126084284644E-04
(PID.TID 0000.0001) %MON surfExpan_theta_mean         =  -3.5235858168463E-06
(PID.TID 0000.0001) %MON surfExpan_salt_mean          =  -2.5948624506883E-06
(PID.TID 0000.0001) // =======================================================
(PID.TID 0000.0001) // End MONITOR dynamic field statistics
(PID.TID 0000.0001) // =======================================================
time,SST,SSS,fu,fv,Q,E-P,i0,i1,a,b =   1.1664E+06  8.6790E-01  3.4679E+01 -3.6120E-02 -5.7906E-02  2.6570E+02  0.0000E+00    12     1  9.5000E-01  5.0000E-02
time,fu0,fu1,fu =   1.1664E+06 -4.5368E-02 -3.5633E-02 -3.6120E-02  9.5000E-01  5.0000E-02
 cg2d: Sum(rhs),rhsMax =  -3.02646796512818E-13  1.37769726897321E+01
(PID.TID 0000.0001)                    cg2d_init_res =    5.13230023707847E-01
(PID.TID 0000.0001)                       cg2d_iters =    25
(PID.TID 0000.0001)                         cg2d_res =    2.48009345109985E-14
(PID.TID 0000.0001) // =======================================================
(PID.TID 0000.0001) // Begin MONITOR dynamic field statistics
(PID.TID 0000.0001) // =======================================================
(PID.TID 0000.0001) %MON time_tsnumber                =                    28
(PID.TID 0000.0001) %MON time_secondsf                =   1.2096000000000E+06
(PID.TID 0000.0001) %MON dynstat_eta_max              =   1.6207762372835E+00
(PID.TID 0000.0001) %MON dynstat_eta_min              =  -1.0716304469365E+00
(PID.TID 0000.0001) %MON dynstat_eta_mean             =   5.1549112535977E-17
(PID.TID 0000.0001) %MON dynstat_eta_sd               =   3.8321747569365E-01
(PID.TID 0000.0001) %MON dynstat_eta_del2             =   1.8434651126041E-02
(PID.TID 0000.0001) %MON dynstat_uvel_max             =   2.0288551138899E-01
(PID.TID 0000.0001) %MON dynstat_uvel_min             =  -2.0932104397157E-01
(PID.TID 0000.0001) %MON dynstat_uvel_mean            =  -5.9561185121526E-03
(PID.TID 0000.0001) %MON dynstat_uvel_sd              =   2.1172760072256E-02
(PID.TID 0000.0001) %MON dynstat_uvel_del2            =   5.4576890583078E-03
(PID.TID 0000.0001) %MON dynstat_vvel_max             =   1.5452798914510E-01
(PID.TID 0000.0001) %MON dynstat_vvel_min             =  -1.5624929103416E-01
(PID.TID 0000.0001) %MON dynstat_vvel_mean            =   2.7670126784328E-03
(PID.TID 0000.0001) %MON dynstat_vvel_sd              =   1.6316972817197E-02
(PID.TID 0000.0001) %MON dynstat_vvel_del2            =   5.3297265438629E-03
(PID.TID 0000.0001) %MON dynstat_wvel_max             =   4.1150469281777E-04
(PID.TID 0000.0001) %MON dynstat_wvel_min             =  -3.8130180850157E-04
(PID.TID 0000.0001) %MON dynstat_wvel_mean            =   8.0766527706036E-24
(PID.TID 0000.0001) %MON dynstat_wvel_sd              =   3.3447600812797E-05
(PID.TID 0000.0001) %MON dynstat_wvel_del2            =   1.3318697393385E-05
(PID.TID 0000.0001) %MON dynstat_theta_max            =   2.9467326685751E+01
(PID.TID 0000.0001) %MON dynstat_theta_min            =  -1.9381039438247E+00
(PID.TID 0000.0001) %MON dynstat_theta_mean           =   3.5935817261642E+00
(PID.TID 0000.0001) %MON dynstat_theta_sd             =   4.3424824776158E+00
(PID.TID 0000.0001) %MON dynstat_theta_del2           =   1.3453385995898E-01
(PID.TID 0000.0001) %MON dynstat_salt_max             =   3.7415140317190E+01
(PID.TID 0000.0001) %MON dynstat_salt_min             =   2.9800920878196E+01
(PID.TID 0000.0001) %MON dynstat_salt_mean            =   3.4716320334203E+01
(PID.TID 0000.0001) %MON dynstat_salt_sd              =   2.9484822217056E-01
(PID.TID 0000.0001) %MON dynstat_salt_del2            =   2.5166222204888E-02
(PID.TID 0000.0001) %MON advcfl_uvel_max              =   3.2975306830225E-02
(PID.TID 0000.0001) %MON advcfl_vvel_max              =   1.5178365655294E-02
(PID.TID 0000.0001) %MON advcfl_wvel_max              =   1.6269550992535E-01
(PID.TID 0000.0001) %MON advcfl_W_hf_max              =   1.2241615980554E-01
(PID.TID 0000.0001) %MON pe_b_mean                    =   1.8791948421498E-04
(PID.TID 0000.0001) %MON ke_max                       =   2.3247891773792E-02
(PID.TID 0000.0001) %MON ke_mean                      =   3.4274569613251E-04
(PID.TID 0000.0001) %MON ke_vol                       =   1.3226782436723E+18
(PID.TID 0000.0001) %MON vort_r_min                   =  -7.4599696915689E-07
(PID.TID 0000.0001) %MON vort_r_max                   =   6.5008181411294E-07
(PID.TID 0000.0001) %MON vort_a_mean                  =  -2.5205769065622E-05
(PID.TID 0000.0001) %MON vort_a_sd                    =   7.3402077564018E-05
(PID.TID 0000.0001) %MON vort_p_mean                  =  -3.1758669144428E-05
(PID.TID 0000.0001) %MON vort_p_sd                    =   1.3126106695460E-04
(PID.TID 0000.0001) %MON surfExpan_theta_mean         =  -5.4498145689694E-06
(PID.TID 0000.0001) %MON surfExpan_salt_mean          =  -2.5197573701968E-06
(PID.TID 0000.0001) // =======================================================
(PID.TID 0000.0001) // End MONITOR dynamic field statistics
(PID.TID 0000.0001) // =======================================================
time,SST,SSS,fu,fv,Q,E-P,i0,i1,a,b =   1.2096E+06  8.9807E-01  3.4691E+01 -3.5957E-02 -5.7690E-02  2.6573E+02  0.0000E+00    12     1  9.6667E-01  3.3333E-02
time,fu0,fu1,fu =   1.2096E+06 -4.5368E-02 -3.5633E-02 -3.5957E-02  9.6667E-01  3.3333E-02
 cg2d: Sum(rhs),rhsMax =   1.36207017886747E-13  1.33499348747836E+01
(PID.TID 0000.0001)                    cg2d_init_res =    5.33178295024743E-01
(PID.TID 0000.0001)                       cg2d_iters =    25
(PID.TID 0000.0001)                         cg2d_res =    2.27730030190067E-14
(PID.TID 0000.0001) // =======================================================
(PID.TID 0000.0001) // Begin MONITOR dynamic field statistics
(PID.TID 0000.0001) // =======================================================
(PID.TID 0000.0001) %MON time_tsnumber                =                    29
(PID.TID 0000.0001) %MON time_secondsf                =   1.2528000000000E+06
(PID.TID 0000.0001) %MON dynstat_eta_max              =   1.5695414855832E+00
(PID.TID 0000.0001) %MON dynstat_eta_min              =  -1.0437245880732E+00
(PID.TID 0000.0001) %MON dynstat_eta_mean             =   1.3405516596245E-16
(PID.TID 0000.0001) %MON dynstat_eta_sd               =   3.8181577127307E-01
(PID.TID 0000.0001) %MON dynstat_eta_del2             =   1.8569563766533E-02
(PID.TID 0000.0001) %MON dynstat_uvel_max             =   2.0085688520573E-01
(PID.TID 0000.0001) %MON dynstat_uvel_min             =  -2.0138156960216E-01
(PID.TID 0000.0001) %MON dynstat_uvel_mean            =  -5.5026689674975E-03
(PID.TID 0000.0001) %MON dynstat_uvel_sd              =   2.1042919763743E-02
(PID.TID 0000.0001) %MON dynstat_uvel_del2            =   5.5071480267232E-03
(PID.TID 0000.0001) %MON dynstat_vvel_max             =   1.5586027399245E-01
(PID.TID 0000.0001) %MON dynstat_vvel_min             =  -1.5680971853108E-01
(PID.TID 0000.0001) %MON dynstat_vvel_mean            =   2.9372202528854E-03
(PID.TID 0000.0001) %MON dynstat_vvel_sd              =   1.6398017964136E-02
(PID.TID 0000.0001) %MON dynstat_vvel_del2            =   5.3286018564144E-03
(PID.TID 0000.0001) %MON dynstat_wvel_max             =   4.0927790810622E-04
(PID.TID 0000.0001) %MON dynstat_wvel_min             =  -3.8286252363355E-04
(PID.TID 0000.0001) %MON dynstat_wvel_mean            =  -1.0368564311500E-23
(PID.TID 0000.0001) %MON dynstat_wvel_sd              =   3.2982512027036E-05
(PID.TID 0000.0001) %MON dynstat_wvel_del2            =   1.3080993186644E-05
(PID.TID 0000.0001) %MON dynstat_theta_max            =   2.9467594226891E+01
(PID.TID 0000.0001) %MON dynstat_theta_min            =  -1.9399036859887E+00
(PID.TID 0000.0001) %MON dynstat_theta_mean           =   3.5937034577591E+00
(PID.TID 0000.0001) %MON dynstat_theta_sd             =   4.3428473578487E+00
(PID.TID 0000.0001) %MON dynstat_theta_del2           =   1.3451283555227E-01
(PID.TID 0000.0001) %MON dynstat_salt_max             =   3.7414149526651E+01
(PID.TID 0000.0001) %MON dynstat_salt_min             =   2.9801298581780E+01
(PID.TID 0000.0001) %MON dynstat_salt_mean            =   3.4716344742094E+01
(PID.TID 0000.0001) %MON dynstat_salt_sd              =   2.9479461347931E-01
(PID.TID 0000.0001) %MON dynstat_salt_del2            =   2.5158646758352E-02
(PID.TID 0000.0001) %MON advcfl_uvel_max              =   3.3297472403265E-02
(PID.TID 0000.0001) %MON advcfl_vvel_max              =   1.5232806692531E-02
(PID.TID 0000.0001) %MON advcfl_wvel_max              =   1.4916691460261E-01
(PID.TID 0000.0001) %MON advcfl_W_hf_max              =   1.0851048937988E-01
(PID.TID 0000.0001) %MON pe_b_mean                    =   1.8654728251706E-04
(PID.TID 0000.0001) %MON ke_max                       =   2.3661899217397E-02
(PID.TID 0000.0001) %MON ke_mean                      =   3.3952105377014E-04
(PID.TID 0000.0001) %MON ke_vol                       =   1.3226782436723E+18
(PID.TID 0000.0001) %MON vort_r_min                   =  -7.4176955335829E-07
(PID.TID 0000.0001) %MON vort_r_max                   =   6.3869070750107E-07
(PID.TID 0000.0001) %MON vort_a_mean                  =  -2.5205769093297E-05
(PID.TID 0000.0001) %MON vort_a_sd                    =   7.3402172078809E-05
(PID.TID 0000.0001) %MON vort_p_mean                  =  -3.1758669179297E-05
(PID.TID 0000.0001) %MON vort_p_sd                    =   1.3126127902870E-04
(PID.TID 0000.0001) %MON surfExpan_theta_mean         =  -6.3618304650580E-06
(PID.TID 0000.0001) %MON surfExpan_salt_mean          =  -2.3219132234101E-06
(PID.TID 0000.0001) // =======================================================
(PID.TID 0000.0001) // End MONITOR dynamic field statistics
(PID.TID 0000.0001) // =======================================================
time,SST,SSS,fu,fv,Q,E-P,i0,i1,a,b =   1.2528E+06  9.2825E-01  3.4703E+01 -3.5795E-02 -5.7473E-02  2.6575E+02  0.0000E+00    12     1  9.8333E-01  1.6667E-02
time,fu0,fu1,fu =   1.2528E+06 -4.5368E-02 -3.5633E-02 -3.5795E-02  9.8333E-01  1.6667E-02
 cg2d: Sum(rhs),rhsMax =   1.38822980888520E-13  1.27132009596816E+01
(PID.TID 0000.0001)                    cg2d_init_res =    5.64190011491668E-01
(PID.TID 0000.0001)                       cg2d_iters =    24
(PID.TID 0000.0001)                         cg2d_res =    9.36738112556835E-14
(PID.TID 0000.0001) // =======================================================
(PID.TID 0000.0001) // Begin MONITOR dynamic field statistics
(PID.TID 0000.0001) // =======================================================
(PID.TID 0000.0001) %MON time_tsnumber                =                    30
(PID.TID 0000.0001) %MON time_secondsf                =   1.2960000000000E+06
(PID.TID 0000.0001) %MON dynstat_eta_max              =   1.4940497976469E+00
(PID.TID 0000.0001) %MON dynstat_eta_min              =  -1.0072652668967E+00
(PID.TID 0000.0001) %MON dynstat_eta_mean             =   1.1375493427261E-16
(PID.TID 0000.0001) %MON dynstat_eta_sd               =   3.8083180895230E-01
(PID.TID 0000.0001) %MON dynstat_eta_del2             =   1.8748212887590E-02
(PID.TID 0000.0001) %MON dynstat_uvel_max             =   2.0053635975275E-01
(PID.TID 0000.0001) %MON dynstat_uvel_min             =  -1.9628260016733E-01
(PID.TID 0000.0001) %MON dynstat_uvel_mean            =  -5.0813551487983E-03
(PID.TID 0000.0001) %MON dynstat_uvel_sd              =   2.0859112773933E-02
(PID.TID 0000.0001) %MON dynstat_uvel_del2            =   5.5509643300496E-03
(PID.TID 0000.0001) %MON dynstat_vvel_max             =   1.5676103378457E-01
(PID.TID 0000.0001) %MON dynstat_vvel_min             =  -1.5375089495284E-01
(PID.TID 0000.0001) %MON dynstat_vvel_mean            =   3.1119677739399E-03
(PID.TID 0000.0001) %MON dynstat_vvel_sd              =   1.6472160422731E-02
(PID.TID 0000.0001) %MON dynstat_vvel_del2            =   5.3233687600377E-03
(PID.TID 0000.0001) %MON dynstat_wvel_max             =   4.0456017751730E-04
(PID.TID 0000.0001) %MON dynstat_wvel_min             =  -3.8294700000388E-04
(PID.TID 0000.0001) %MON dynstat_wvel_mean            =   8.9183732183274E-22
(PID.TID 0000.0001) %MON dynstat_wvel_sd              =   3.2606679562936E-05
(PID.TID 0000.0001) %MON dynstat_wvel_del2            =   1.2890107231977E-05
(PID.TID 0000.0001) %MON dynstat_theta_max            =   2.9467802273818E+01
(PID.TID 0000.0001) %MON dynstat_theta_min            =  -1.9414391020788E+00
(PID.TID 0000.0001) %MON dynstat_theta_mean           =   3.5938199712493E+00
(PID.TID 0000.0001) %MON dynstat_theta_sd             =   4.3433283849197E+00
(PID.TID 0000.0001) %MON dynstat_theta_del2           =   1.3444970629766E-01
(PID.TID 0000.0001) %MON dynstat_salt_max             =   3.7413145850162E+01
(PID.TID 0000.0001) %MON dynstat_salt_min             =   2.9801744376518E+01
(PID.TID 0000.0001) %MON dynstat_salt_mean            =   3.4716364986292E+01
(PID.TID 0000.0001) %MON dynstat_salt_sd              =   2.9473929263138E-01
(PID.TID 0000.0001) %MON dynstat_salt_del2            =   2.5138891526444E-02
(PID.TID 0000.0001) %MON advcfl_uvel_max              =   3.3511190192625E-02
(PID.TID 0000.0001) %MON advcfl_vvel_max              =   1.5228077359813E-02
(PID.TID 0000.0001) %MON advcfl_wvel_max              =   1.4929202476183E-01
(PID.TID 0000.0001) %MON advcfl_W_hf_max              =   1.0895871933130E-01
(PID.TID 0000.0001) %MON pe_b_mean                    =   1.8558703417728E-04
(PID.TID 0000.0001) %MON ke_max                       =   2.4046244888747E-02
(PID.TID 0000.0001) %MON ke_mean                      =   3.3556477018931E-04
(PID.TID 0000.0001) %MON ke_vol                       =   1.3226782436723E+18
(PID.TID 0000.0001) %MON vort_r_min                   =  -7.4539942976679E-07
(PID.TID 0000.0001) %MON vort_r_max                   =   6.3202724237373E-07
(PID.TID 0000.0001) %MON vort_a_mean                  =  -2.5205769124029E-05
(PID.TID 0000.0001) %MON vort_a_sd                    =   7.3402262161679E-05
(PID.TID 0000.0001) %MON vort_p_mean                  =  -3.1758669218019E-05
(PID.TID 0000.0001) %MON vort_p_sd                    =   1.3126147821505E-04
(PID.TID 0000.0001) %MON surfExpan_theta_mean         =  -6.4004423920111E-06
(PID.TID 0000.0001) %MON surfExpan_salt_mean          =  -2.0171599475036E-06
(PID.TID 0000.0001) // =======================================================
(PID.TID 0000.0001) // End MONITOR dynamic field statistics
(PID.TID 0000.0001) // =======================================================
 S/R EXTERNAL_FIELDS_LOAD: Reading new data  1296000. 30
(PID.TID 0000.0001)  MDSREADFIELD: opening global file: trenberth_taux.bin
(PID.TID 0000.0001)  MDSREADFIELD: opening global file: trenberth_taux.bin
(PID.TID 0000.0001)  MDSREADFIELD: opening global file: trenberth_tauy.bin
(PID.TID 0000.0001)  MDSREADFIELD: opening global file: trenberth_tauy.bin
(PID.TID 0000.0001)  MDSREADFIELD: opening global file: ncep_qnet.bin
(PID.TID 0000.0001)  MDSREADFIELD: opening global file: ncep_qnet.bin
(PID.TID 0000.0001)  MDSREADFIELD: opening global file: lev_sst.bin
(PID.TID 0000.0001)  MDSREADFIELD: opening global file: lev_sst.bin
(PID.TID 0000.0001)  MDSREADFIELD: opening global file: lev_sss.bin
(PID.TID 0000.0001)  MDSREADFIELD: opening global file: lev_sss.bin
time,SST,SSS,fu,fv,Q,E-P,i0,i1,a,b =   1.2960E+06  9.5843E-01  3.4715E+01 -3.5633E-02 -5.7257E-02  2.6577E+02  0.0000E+00     1     2  0.0000E+00  1.0000E+00
time,fu0,fu1,fu =   1.2960E+06 -3.5633E-02 -1.4435E-02 -3.5633E-02  0.0000E+00  1.0000E+00
 cg2d: Sum(rhs),rhsMax =   2.38937342134093E-13  1.18840510750622E+01
(PID.TID 0000.0001)                    cg2d_init_res =    6.06247071299423E-01
(PID.TID 0000.0001)                       cg2d_iters =    24
(PID.TID 0000.0001)                         cg2d_res =    8.38532249781697E-14
(PID.TID 0000.0001) // =======================================================
(PID.TID 0000.0001) // Begin MONITOR dynamic field statistics
(PID.TID 0000.0001) // =======================================================
(PID.TID 0000.0001) %MON time_tsnumber                =                    31
(PID.TID 0000.0001) %MON time_secondsf                =   1.3392000000000E+06
(PID.TID 0000.0001) %MON dynstat_eta_max              =   1.3963430480883E+00
(PID.TID 0000.0001) %MON dynstat_eta_min              =  -1.0227280251575E+00
(PID.TID 0000.0001) %MON dynstat_eta_mean             =  -2.1815476564511E-18
(PID.TID 0000.0001) %MON dynstat_eta_sd               =   3.8038547624676E-01
(PID.TID 0000.0001) %MON dynstat_eta_del2             =   1.8860402270663E-02
(PID.TID 0000.0001) %MON dynstat_uvel_max             =   1.9899663018740E-01
(PID.TID 0000.0001) %MON dynstat_uvel_min             =  -1.9763373117001E-01
(PID.TID 0000.0001) %MON dynstat_uvel_mean            =  -4.6967244850106E-03
(PID.TID 0000.0001) %MON dynstat_uvel_sd              =   2.0627744268666E-02
(PID.TID 0000.0001) %MON dynstat_uvel_del2            =   5.5905312107482E-03
(PID.TID 0000.0001) %MON dynstat_vvel_max             =   1.5724576880989E-01
(PID.TID 0000.0001) %MON dynstat_vvel_min             =  -1.5016753584933E-01
(PID.TID 0000.0001) %MON dynstat_vvel_mean            =   3.2822723847153E-03
(PID.TID 0000.0001) %MON dynstat_vvel_sd              =   1.6533655198688E-02
(PID.TID 0000.0001) %MON dynstat_vvel_del2            =   5.3145692734494E-03
(PID.TID 0000.0001) %MON dynstat_wvel_max             =   3.9746869284458E-04
(PID.TID 0000.0001) %MON dynstat_wvel_min             =  -3.8146984401609E-04
(PID.TID 0000.0001) %MON dynstat_wvel_mean            =   9.7273364250718E-22
(PID.TID 0000.0001) %MON dynstat_wvel_sd              =   3.2306617259348E-05
(PID.TID 0000.0001) %MON dynstat_wvel_del2            =   1.2740827941677E-05
(PID.TID 0000.0001) %MON dynstat_theta_max            =   2.9478435633847E+01
(PID.TID 0000.0001) %MON dynstat_theta_min            =  -1.9426310136870E+00
(PID.TID 0000.0001) %MON dynstat_theta_mean           =   3.5939242962014E+00
(PID.TID 0000.0001) %MON dynstat_theta_sd             =   4.3438876737204E+00
(PID.TID 0000.0001) %MON dynstat_theta_del2           =   1.3436794016665E-01
(PID.TID 0000.0001) %MON dynstat_salt_max             =   3.7412116938815E+01
(PID.TID 0000.0001) %MON dynstat_salt_min             =   2.9802248043314E+01
(PID.TID 0000.0001) %MON dynstat_salt_mean            =   3.4716380246791E+01
(PID.TID 0000.0001) %MON dynstat_salt_sd              =   2.9468029905253E-01
(PID.TID 0000.0001) %MON dynstat_salt_del2            =   2.5126431564148E-02
(PID.TID 0000.0001) %MON advcfl_uvel_max              =   3.3624495953541E-02
(PID.TID 0000.0001) %MON advcfl_vvel_max              =   1.5275165480415E-02
(PID.TID 0000.0001) %MON advcfl_wvel_max              =   1.5530141583205E-01
(PID.TID 0000.0001) %MON advcfl_W_hf_max              =   1.1373106000876E-01
(PID.TID 0000.0001) %MON pe_b_mean                    =   1.8515227520547E-04
(PID.TID 0000.0001) %MON ke_max                       =   2.4265227026206E-02
(PID.TID 0000.0001) %MON ke_mean                      =   3.3089535613923E-04
(PID.TID 0000.0001) %MON ke_vol                       =   1.3226782436723E+18
(PID.TID 0000.0001) %MON vort_r_min                   =  -7.5103953035622E-07
(PID.TID 0000.0001) %MON vort_r_max                   =   6.2899413116456E-07
(PID.TID 0000.0001) %MON vort_a_mean                  =  -2.5205769154847E-05
(PID.TID 0000.0001) %MON vort_a_sd                    =   7.3402346685010E-05
(PID.TID 0000.0001) %MON vort_p_mean                  =  -3.1758669256849E-05
(PID.TID 0000.0001) %MON vort_p_sd                    =   1.3126166415325E-04
(PID.TID 0000.0001) %MON surfExpan_theta_mean         =  -5.7298263880734E-06
(PID.TID 0000.0001) %MON surfExpan_salt_mean          =  -1.6280487014661E-06
(PID.TID 0000.0001) // =======================================================
(PID.TID 0000.0001) // End MONITOR dynamic field statistics
(PID.TID 0000.0001) // =======================================================
time,SST,SSS,fu,fv,Q,E-P,i0,i1,a,b =   1.3392E+06  9.3359E-01  3.4710E+01 -3.5280E-02 -5.6596E-02  2.6535E+02  0.0000E+00     1     2  1.6667E-02  9.8333E-01
time,fu0,fu1,fu =   1.3392E+06 -3.5633E-02 -1.4435E-02 -3.5280E-02  1.6667E-02  9.8333E-01
 cg2d: Sum(rhs),rhsMax =  -5.64825963778048E-15  1.08860124067427E+01
(PID.TID 0000.0001)                    cg2d_init_res =    6.60365315984127E-01
(PID.TID 0000.0001)                       cg2d_iters =    24
(PID.TID 0000.0001)                         cg2d_res =    6.71489346475444E-14
(PID.TID 0000.0001) // =======================================================
(PID.TID 0000.0001) // Begin MONITOR dynamic field statistics
(PID.TID 0000.0001) // =======================================================
(PID.TID 0000.0001) %MON time_tsnumber                =                    32
(PID.TID 0000.0001) %MON time_secondsf                =   1.3824000000000E+06
(PID.TID 0000.0001) %MON dynstat_eta_max              =   1.2791861150493E+00
(PID.TID 0000.0001) %MON dynstat_eta_min              =  -1.0353472432234E+00
(PID.TID 0000.0001) %MON dynstat_eta_mean             =   8.7837263358451E-17
(PID.TID 0000.0001) %MON dynstat_eta_sd               =   3.8055397404326E-01
(PID.TID 0000.0001) %MON dynstat_eta_del2             =   1.8925303513139E-02
(PID.TID 0000.0001) %MON dynstat_uvel_max             =   2.0044650818859E-01
(PID.TID 0000.0001) %MON dynstat_uvel_min             =  -1.9842985625362E-01
(PID.TID 0000.0001) %MON dynstat_uvel_mean            =  -4.3516611280778E-03
(PID.TID 0000.0001) %MON dynstat_uvel_sd              =   2.0356270630315E-02
(PID.TID 0000.0001) %MON dynstat_uvel_del2            =   5.6255429962977E-03
(PID.TID 0000.0001) %MON dynstat_vvel_max             =   1.6191516691209E-01
(PID.TID 0000.0001) %MON dynstat_vvel_min             =  -1.5272448480241E-01
(PID.TID 0000.0001) %MON dynstat_vvel_mean            =   3.4397948929153E-03
(PID.TID 0000.0001) %MON dynstat_vvel_sd              =   1.6576922978451E-02
(PID.TID 0000.0001) %MON dynstat_vvel_del2            =   5.3030339270696E-03
(PID.TID 0000.0001) %MON dynstat_wvel_max             =   3.8812766802247E-04
(PID.TID 0000.0001) %MON dynstat_wvel_min             =  -3.7838364214834E-04
(PID.TID 0000.0001) %MON dynstat_wvel_mean            =   6.2733082148100E-22
(PID.TID 0000.0001) %MON dynstat_wvel_sd              =   3.2065036785222E-05
(PID.TID 0000.0001) %MON dynstat_wvel_del2            =   1.2632347852431E-05
(PID.TID 0000.0001) %MON dynstat_theta_max            =   2.9493556518261E+01
(PID.TID 0000.0001) %MON dynstat_theta_min            =  -1.9434247131231E+00
(PID.TID 0000.0001) %MON dynstat_theta_mean           =   3.5940108442240E+00
(PID.TID 0000.0001) %MON dynstat_theta_sd             =   4.3444932545166E+00
(PID.TID 0000.0001) %MON dynstat_theta_del2           =   1.3431173481305E-01
(PID.TID 0000.0001) %MON dynstat_salt_max             =   3.7411008972568E+01
(PID.TID 0000.0001) %MON dynstat_salt_min             =   2.9802776370019E+01
(PID.TID 0000.0001) %MON dynstat_salt_mean            =   3.4716389995338E+01
(PID.TID 0000.0001) %MON dynstat_salt_sd              =   2.9461996881977E-01
(PID.TID 0000.0001) %MON dynstat_salt_del2            =   2.5105977657336E-02
(PID.TID 0000.0001) %MON advcfl_uvel_max              =   3.3646211109697E-02
(PID.TID 0000.0001) %MON advcfl_vvel_max              =   1.5728760061973E-02
(PID.TID 0000.0001) %MON advcfl_wvel_max              =   1.6870598357630E-01
(PID.TID 0000.0001) %MON advcfl_W_hf_max              =   1.2084120007622E-01
(PID.TID 0000.0001) %MON pe_b_mean                    =   1.8531634382589E-04
(PID.TID 0000.0001) %MON ke_max                       =   2.4297091042166E-02
(PID.TID 0000.0001) %MON ke_mean                      =   3.2554065970844E-04
(PID.TID 0000.0001) %MON ke_vol                       =   1.3226782436723E+18
(PID.TID 0000.0001) %MON vort_r_min                   =  -7.5752127227842E-07
(PID.TID 0000.0001) %MON vort_r_max                   =   6.2717441153193E-07
(PID.TID 0000.0001) %MON vort_a_mean                  =  -2.5205769182830E-05
(PID.TID 0000.0001) %MON vort_a_sd                    =   7.3402424792703E-05
(PID.TID 0000.0001) %MON vort_p_mean                  =  -3.1758669292107E-05
(PID.TID 0000.0001) %MON vort_p_sd                    =   1.3126183683172E-04
(PID.TID 0000.0001) %MON surfExpan_theta_mean         =  -4.4950924341609E-06
(PID.TID 0000.0001) %MON surfExpan_salt_mean          =  -1.1766358870555E-06
(PID.TID 0000.0001) // =======================================================
(PID.TID 0000.0001) // End MONITOR dynamic field statistics
(PID.TID 0000.0001) // =======================================================
time,SST,SSS,fu,fv,Q,E-P,i0,i1,a,b =   1.3824E+06  9.0875E-01  3.4705E+01 -3.4926E-02 -5.5936E-02  2.6493E+02  0.0000E+00     1     2  3.3333E-02  9.6667E-01
time,fu0,fu1,fu =   1.3824E+06 -3.5633E-02 -1.4435E-02 -3.4926E-02  3.3333E-02  9.6667E-01
 cg2d: Sum(rhs),rhsMax =  -1.69378400194375E-13  1.02664656005225E+01
(PID.TID 0000.0001)                    cg2d_init_res =    6.92575902142353E-01
(PID.TID 0000.0001)                       cg2d_iters =    25
(PID.TID 0000.0001)                         cg2d_res =    2.80467965352193E-14
(PID.TID 0000.0001) // =======================================================
(PID.TID 0000.0001) // Begin MONITOR dynamic field statistics
(PID.TID 0000.0001) // =======================================================
(PID.TID 0000.0001) %MON time_tsnumber                =                    33
(PID.TID 0000.0001) %MON time_secondsf                =   1.4256000000000E+06
(PID.TID 0000.0001) %MON dynstat_eta_max              =   1.1484867125522E+00
(PID.TID 0000.0001) %MON dynstat_eta_min              =  -1.0463106185093E+00
(PID.TID 0000.0001) %MON dynstat_eta_mean             =  -1.0929845769598E-16
(PID.TID 0000.0001) %MON dynstat_eta_sd               =   3.8136147017246E-01
(PID.TID 0000.0001) %MON dynstat_eta_del2             =   1.8936597463957E-02
(PID.TID 0000.0001) %MON dynstat_uvel_max             =   2.1092493020877E-01
(PID.TID 0000.0001) %MON dynstat_uvel_min             =  -1.9869789719678E-01
(PID.TID 0000.0001) %MON dynstat_uvel_mean            =  -4.0475031649698E-03
(PID.TID 0000.0001) %MON dynstat_uvel_sd              =   2.0053461740772E-02
(PID.TID 0000.0001) %MON dynstat_uvel_del2            =   5.6568815551357E-03
(PID.TID 0000.0001) %MON dynstat_vvel_max             =   1.7344439441694E-01
(PID.TID 0000.0001) %MON dynstat_vvel_min             =  -1.5346169241138E-01
(PID.TID 0000.0001) %MON dynstat_vvel_mean            =   3.5771978172824E-03
(PID.TID 0000.0001) %MON dynstat_vvel_sd              =   1.6597174483818E-02
(PID.TID 0000.0001) %MON dynstat_vvel_del2            =   5.2897373550349E-03
(PID.TID 0000.0001) %MON dynstat_wvel_max             =   3.7667328985234E-04
(PID.TID 0000.0001) %MON dynstat_wvel_min             =  -3.7369068643143E-04
(PID.TID 0000.0001) %MON dynstat_wvel_mean            =  -1.4065484455393E-22
(PID.TID 0000.0001) %MON dynstat_wvel_sd              =   3.1864681853259E-05
(PID.TID 0000.0001) %MON dynstat_wvel_del2            =   1.2549909580394E-05
(PID.TID 0000.0001) %MON dynstat_theta_max            =   2.9507682267441E+01
(PID.TID 0000.0001) %MON dynstat_theta_min            =  -1.9437850107970E+00
(PID.TID 0000.0001) %MON dynstat_theta_mean           =   3.5940763016370E+00
(PID.TID 0000.0001) %MON dynstat_theta_sd             =   4.3451118592085E+00
(PID.TID 0000.0001) %MON dynstat_theta_del2           =   1.3422565211206E-01
(PID.TID 0000.0001) %MON dynstat_salt_max             =   3.7409827509194E+01
(PID.TID 0000.0001) %MON dynstat_salt_min             =   2.9803318704629E+01
(PID.TID 0000.0001) %MON dynstat_salt_mean            =   3.4716394001294E+01
(PID.TID 0000.0001) %MON dynstat_salt_sd              =   2.9455737710018E-01
(PID.TID 0000.0001) %MON dynstat_salt_del2            =   2.5084122715496E-02
(PID.TID 0000.0001) %MON advcfl_uvel_max              =   3.3585870061918E-02
(PID.TID 0000.0001) %MON advcfl_vvel_max              =   1.6848732060780E-02
(PID.TID 0000.0001) %MON advcfl_wvel_max              =   1.9182479392208E-01
(PID.TID 0000.0001) %MON advcfl_W_hf_max              =   1.3680846113598E-01
(PID.TID 0000.0001) %MON pe_b_mean                    =   1.8610362238922E-04
(PID.TID 0000.0001) %MON ke_max                       =   2.4129088393978E-02
(PID.TID 0000.0001) %MON ke_mean                      =   3.1955530315096E-04
(PID.TID 0000.0001) %MON ke_vol                       =   1.3226782436723E+18
(PID.TID 0000.0001) %MON vort_r_min                   =  -7.6484975486106E-07
(PID.TID 0000.0001) %MON vort_r_max                   =   6.2686969616681E-07
(PID.TID 0000.0001) %MON vort_a_mean                  =  -2.5205769205704E-05
(PID.TID 0000.0001) %MON vort_a_sd                    =   7.3402495896843E-05
(PID.TID 0000.0001) %MON vort_p_mean                  =  -3.1758669320928E-05
(PID.TID 0000.0001) %MON vort_p_sd                    =   1.3126199637763E-04
(PID.TID 0000.0001) %MON surfExpan_theta_mean         =  -2.8501780803229E-06
(PID.TID 0000.0001) %MON surfExpan_salt_mean          =  -6.8872133483898E-07
(PID.TID 0000.0001) // =======================================================
(PID.TID 0000.0001) // End MONITOR dynamic field statistics
(PID.TID 0000.0001) // =======================================================
time,SST,SSS,fu,fv,Q,E-P,i0,i1,a,b =   1.4256E+06  8.8391E-01  3.4700E+01 -3.4573E-02 -5.5276E-02  2.6451E+02  0.0000E+00     1     2  5.0000E-02  9.5000E-01
time,fu0,fu1,fu =   1.4256E+06 -3.5633E-02 -1.4435E-02 -3.4573E-02  5.0000E-02  9.5000E-01
 cg2d: Sum(rhs),rhsMax =  -1.23276389096816E-13  1.03997408752482E+01
(PID.TID 0000.0001)                    cg2d_init_res =    6.69987636806443E-01
(PID.TID 0000.0001)                       cg2d_iters =    25
(PID.TID 0000.0001)                         cg2d_res =    3.21851489597204E-14
(PID.TID 0000.0001) // =======================================================
(PID.TID 0000.0001) // Begin MONITOR dynamic field statistics
(PID.TID 0000.0001) // =======================================================
(PID.TID 0000.0001) %MON time_tsnumber                =                    34
(PID.TID 0000.0001) %MON time_secondsf                =   1.4688000000000E+06
(PID.TID 0000.0001) %MON dynstat_eta_max              =   1.1625651821706E+00
(PID.TID 0000.0001) %MON dynstat_eta_min              =  -1.0540202851708E+00
(PID.TID 0000.0001) %MON dynstat_eta_mean             =  -1.6026928870536E-16
(PID.TID 0000.0001) %MON dynstat_eta_sd               =   3.8277632080433E-01
(PID.TID 0000.0001) %MON dynstat_eta_del2             =   1.8952841360387E-02
(PID.TID 0000.0001) %MON dynstat_uvel_max             =   2.1891295775767E-01
(PID.TID 0000.0001) %MON dynstat_uvel_min             =  -1.9846638422172E-01
(PID.TID 0000.0001) %MON dynstat_uvel_mean            =  -3.7841111559723E-03
(PID.TID 0000.0001) %MON dynstat_uvel_sd              =   1.9728881855310E-02
(PID.TID 0000.0001) %MON dynstat_uvel_del2            =   5.6839572528264E-03
(PID.TID 0000.0001) %MON dynstat_vvel_max             =   1.8352459471574E-01
(PID.TID 0000.0001) %MON dynstat_vvel_min             =  -1.5255280306870E-01
(PID.TID 0000.0001) %MON dynstat_vvel_mean            =   3.6881863603801E-03
(PID.TID 0000.0001) %MON dynstat_vvel_sd              =   1.6591177710713E-02
(PID.TID 0000.0001) %MON dynstat_vvel_del2            =   5.2769228030191E-03
(PID.TID 0000.0001) %MON dynstat_wvel_max             =   3.6325627668041E-04
(PID.TID 0000.0001) %MON dynstat_wvel_min             =  -3.6744894131944E-04
(PID.TID 0000.0001) %MON dynstat_wvel_mean            =  -3.8565508234651E-22
(PID.TID 0000.0001) %MON dynstat_wvel_sd              =   3.1691410354048E-05
(PID.TID 0000.0001) %MON dynstat_wvel_del2            =   1.2489753637841E-05
(PID.TID 0000.0001) %MON dynstat_theta_max            =   2.9520603891577E+01
(PID.TID 0000.0001) %MON dynstat_theta_min            =  -1.9436938379894E+00
(PID.TID 0000.0001) %MON dynstat_theta_mean           =   3.5941186574922E+00
(PID.TID 0000.0001) %MON dynstat_theta_sd             =   4.3457144413284E+00
(PID.TID 0000.0001) %MON dynstat_theta_del2           =   1.3413455790938E-01
(PID.TID 0000.0001) %MON dynstat_salt_max             =   3.7408558220992E+01
(PID.TID 0000.0001) %MON dynstat_salt_min             =   2.9803856772111E+01
(PID.TID 0000.0001) %MON dynstat_salt_mean            =   3.4716392313490E+01
(PID.TID 0000.0001) %MON dynstat_salt_sd              =   2.9449266552906E-01
(PID.TID 0000.0001) %MON dynstat_salt_del2            =   2.5066382090848E-02
(PID.TID 0000.0001) %MON advcfl_uvel_max              =   3.3453666371390E-02
(PID.TID 0000.0001) %MON advcfl_vvel_max              =   1.7827942686320E-02
(PID.TID 0000.0001) %MON advcfl_wvel_max              =   2.0930676908359E-01
(PID.TID 0000.0001) %MON advcfl_W_hf_max              =   1.4875656312013E-01
(PID.TID 0000.0001) %MON pe_b_mean                    =   1.8748707240235E-04
(PID.TID 0000.0001) %MON ke_max                       =   2.3752068649459E-02
(PID.TID 0000.0001) %MON ke_mean                      =   3.1302444936773E-04
(PID.TID 0000.0001) %MON ke_vol                       =   1.3226782436723E+18
(PID.TID 0000.0001) %MON vort_r_min                   =  -7.7291464501356E-07
(PID.TID 0000.0001) %MON vort_r_max                   =   6.2819263450026E-07
(PID.TID 0000.0001) %MON vort_a_mean                  =  -2.5205769221688E-05
(PID.TID 0000.0001) %MON vort_a_sd                    =   7.3402559675078E-05
(PID.TID 0000.0001) %MON vort_p_mean                  =  -3.1758669341067E-05
(PID.TID 0000.0001) %MON vort_p_sd                    =   1.3126214297523E-04
(PID.TID 0000.0001) %MON surfExpan_theta_mean         =  -9.3871243927033E-07
(PID.TID 0000.0001) %MON surfExpan_salt_mean          =  -1.8979260869290E-07
(PID.TID 0000.0001) // =======================================================
(PID.TID 0000.0001) // End MONITOR dynamic field statistics
(PID.TID 0000.0001) // =======================================================
time,SST,SSS,fu,fv,Q,E-P,i0,i1,a,b =   1.4688E+06  8.5907E-01  3.4695E+01 -3.4220E-02 -5.4615E-02  2.6408E+02  0.0000E+00     1     2  6.6667E-02  9.3333E-01
time,fu0,fu1,fu =   1.4688E+06 -3.5633E-02 -1.4435E-02 -3.4220E-02  6.6667E-02  9.3333E-01
 cg2d: Sum(rhs),rhsMax =   1.79911641140507E-13  1.04409401228434E+01
(PID.TID 0000.0001)                    cg2d_init_res =    6.48587769890344E-01
(PID.TID 0000.0001)                       cg2d_iters =    25
(PID.TID 0000.0001)                         cg2d_res =    3.48262260014728E-14
(PID.TID 0000.0001) // =======================================================
(PID.TID 0000.0001) // Begin MONITOR dynamic field statistics
(PID.TID 0000.0001) // =======================================================
(PID.TID 0000.0001) %MON time_tsnumber                =                    35
(PID.TID 0000.0001) %MON time_secondsf                =   1.5120000000000E+06
(PID.TID 0000.0001) %MON dynstat_eta_max              =   1.1663992871233E+00
(PID.TID 0000.0001) %MON dynstat_eta_min              =  -1.0578329514248E+00
(PID.TID 0000.0001) %MON dynstat_eta_mean             =  -1.8512995488148E-16
(PID.TID 0000.0001) %MON dynstat_eta_sd               =   3.8471704805224E-01
(PID.TID 0000.0001) %MON dynstat_eta_del2             =   1.8968050512839E-02
(PID.TID 0000.0001) %MON dynstat_uvel_max             =   2.2419147176412E-01
(PID.TID 0000.0001) %MON dynstat_uvel_min             =  -1.9776513057554E-01
(PID.TID 0000.0001) %MON dynstat_uvel_mean            =  -3.5600164670566E-03
(PID.TID 0000.0001) %MON dynstat_uvel_sd              =   1.9392570108348E-02
(PID.TID 0000.0001) %MON dynstat_uvel_del2            =   5.7080053487401E-03
(PID.TID 0000.0001) %MON dynstat_vvel_max             =   1.9198363789695E-01
(PID.TID 0000.0001) %MON dynstat_vvel_min             =  -1.5752541824022E-01
(PID.TID 0000.0001) %MON dynstat_vvel_mean            =   3.7676475315686E-03
(PID.TID 0000.0001) %MON dynstat_vvel_sd              =   1.6557457766248E-02
(PID.TID 0000.0001) %MON dynstat_vvel_del2            =   5.2648413997875E-03
(PID.TID 0000.0001) %MON dynstat_wvel_max             =   3.4804531041955E-04
(PID.TID 0000.0001) %MON dynstat_wvel_min             =  -3.5977252819333E-04
(PID.TID 0000.0001) %MON dynstat_wvel_mean            =   3.9433154461024E-22
(PID.TID 0000.0001) %MON dynstat_wvel_sd              =   3.1535610286738E-05
(PID.TID 0000.0001) %MON dynstat_wvel_del2            =   1.2452822498336E-05
(PID.TID 0000.0001) %MON dynstat_theta_max            =   2.9532184131518E+01
(PID.TID 0000.0001) %MON dynstat_theta_min            =  -1.9430662885786E+00
(PID.TID 0000.0001) %MON dynstat_theta_mean           =   3.5941374381301E+00
(PID.TID 0000.0001) %MON dynstat_theta_sd             =   4.3462757751019E+00
(PID.TID 0000.0001) %MON dynstat_theta_del2           =   1.3404349873424E-01
(PID.TID 0000.0001) %MON dynstat_salt_max             =   3.7407187974859E+01
(PID.TID 0000.0001) %MON dynstat_salt_min             =   2.9804372197707E+01
(PID.TID 0000.0001) %MON dynstat_salt_mean            =   3.4716385246615E+01
(PID.TID 0000.0001) %MON dynstat_salt_sd              =   2.9442592163345E-01
(PID.TID 0000.0001) %MON dynstat_salt_del2            =   2.5046477416111E-02
(PID.TID 0000.0001) %MON advcfl_uvel_max              =   3.3260378915715E-02
(PID.TID 0000.0001) %MON advcfl_vvel_max              =   1.8649670898003E-02
(PID.TID 0000.0001) %MON advcfl_wvel_max              =   2.2058814736498E-01
(PID.TID 0000.0001) %MON advcfl_W_hf_max              =   1.5629911882278E-01
(PID.TID 0000.0001) %MON pe_b_mean                    =   1.8939306116351E-04
(PID.TID 0000.0001) %MON ke_max                       =   2.3163535283048E-02
(PID.TID 0000.0001) %MON ke_mean                      =   3.0606348111863E-04
(PID.TID 0000.0001) %MON ke_vol                       =   1.3226782436723E+18
(PID.TID 0000.0001) %MON vort_r_min                   =  -7.8152644873263E-07
(PID.TID 0000.0001) %MON vort_r_max                   =   6.3110654574940E-07
(PID.TID 0000.0001) %MON vort_a_mean                  =  -2.5205769229550E-05
(PID.TID 0000.0001) %MON vort_a_sd                    =   7.3402616058900E-05
(PID.TID 0000.0001) %MON vort_p_mean                  =  -3.1758669350973E-05
(PID.TID 0000.0001) %MON vort_p_sd                    =   1.3126227689448E-04
(PID.TID 0000.0001) %MON surfExpan_theta_mean         =   1.1109360777679E-06
(PID.TID 0000.0001) %MON surfExpan_salt_mean          =   2.9658979834179E-07
(PID.TID 0000.0001) // =======================================================
(PID.TID 0000.0001) // End MONITOR dynamic field statistics
(PID.TID 0000.0001) // =======================================================
time,SST,SSS,fu,fv,Q,E-P,i0,i1,a,b =   1.5120E+06  8.3424E-01  3.4690E+01 -3.3866E-02 -5.3955E-02  2.6366E+02  0.0000E+00     1     2  8.3333E-02  9.1667E-01
time,fu0,fu1,fu =   1.5120E+06 -3.5633E-02 -1.4435E-02 -3.3866E-02  8.3333E-02  9.1667E-01
 cg2d: Sum(rhs),rhsMax =  -1.39471767468535E-14  1.03873049844923E+01
(PID.TID 0000.0001)                    cg2d_init_res =    6.29996066344250E-01
(PID.TID 0000.0001)                       cg2d_iters =    25
(PID.TID 0000.0001)                         cg2d_res =    3.67656167537522E-14
(PID.TID 0000.0001) // =======================================================
(PID.TID 0000.0001) // Begin MONITOR dynamic field statistics
(PID.TID 0000.0001) // =======================================================
(PID.TID 0000.0001) %MON time_tsnumber                =                    36
(PID.TID 0000.0001) %MON time_secondsf                =   1.5552000000000E+06
(PID.TID 0000.0001) %MON dynstat_eta_max              =   1.1596895982500E+00
(PID.TID 0000.0001) %MON dynstat_eta_min              =  -1.0578994777236E+00
(PID.TID 0000.0001) %MON dynstat_eta_mean             =   1.8229448100178E-16
(PID.TID 0000.0001) %MON dynstat_eta_sd               =   3.8706582497514E-01
(PID.TID 0000.0001) %MON dynstat_eta_del2             =   1.8909514683135E-02
(PID.TID 0000.0001) %MON dynstat_uvel_max             =   2.2660785032003E-01
(PID.TID 0000.0001) %MON dynstat_uvel_min             =  -1.9662237764153E-01
(PID.TID 0000.0001) %MON dynstat_uvel_mean            =  -3.3725912076363E-03
(PID.TID 0000.0001) %MON dynstat_uvel_sd              =   1.9054580711501E-02
(PID.TID 0000.0001) %MON dynstat_uvel_del2            =   5.7268167983481E-03
(PID.TID 0000.0001) %MON dynstat_vvel_max             =   1.9867568706242E-01
(PID.TID 0000.0001) %MON dynstat_vvel_min             =  -1.6259205301832E-01
(PID.TID 0000.0001) %MON dynstat_vvel_mean            =   3.8116971765557E-03
(PID.TID 0000.0001) %MON dynstat_vvel_sd              =   1.6496197465635E-02
(PID.TID 0000.0001) %MON dynstat_vvel_del2            =   5.2517493316452E-03
(PID.TID 0000.0001) %MON dynstat_wvel_max             =   3.3122454347325E-04
(PID.TID 0000.0001) %MON dynstat_wvel_min             =  -3.5082643526855E-04
(PID.TID 0000.0001) %MON dynstat_wvel_mean            =   1.4460161924192E-22
(PID.TID 0000.0001) %MON dynstat_wvel_sd              =   3.1391853701078E-05
(PID.TID 0000.0001) %MON dynstat_wvel_del2            =   1.2437246483490E-05
(PID.TID 0000.0001) %MON dynstat_theta_max            =   2.9542340037921E+01
(PID.TID 0000.0001) %MON dynstat_theta_min            =  -1.9464436713538E+00
(PID.TID 0000.0001) %MON dynstat_theta_mean           =   3.5941331386215E+00
(PID.TID 0000.0001) %MON dynstat_theta_sd             =   4.3467745621702E+00
(PID.TID 0000.0001) %MON dynstat_theta_del2           =   1.3393991870403E-01
(PID.TID 0000.0001) %MON dynstat_salt_max             =   3.7405706287360E+01
(PID.TID 0000.0001) %MON dynstat_salt_min             =   2.9804847433332E+01
(PID.TID 0000.0001) %MON dynstat_salt_mean            =   3.4716373336068E+01
(PID.TID 0000.0001) %MON dynstat_salt_sd              =   2.9435774533823E-01
(PID.TID 0000.0001) %MON dynstat_salt_del2            =   2.5023293014364E-02
(PID.TID 0000.0001) %MON advcfl_uvel_max              =   3.3017216911632E-02
(PID.TID 0000.0001) %MON advcfl_vvel_max              =   1.9299749810646E-02
(PID.TID 0000.0001) %MON advcfl_wvel_max              =   2.2530716703967E-01
(PID.TID 0000.0001) %MON advcfl_W_hf_max              =   1.5919401552757E-01
(PID.TID 0000.0001) %MON pe_b_mean                    =   1.9171268791211E-04
(PID.TID 0000.0001) %MON ke_max                       =   2.2368429128321E-02
(PID.TID 0000.0001) %MON ke_mean                      =   2.9881029824784E-04
(PID.TID 0000.0001) %MON ke_vol                       =   1.3226782436723E+18
(PID.TID 0000.0001) %MON vort_r_min                   =  -7.9043429545745E-07
(PID.TID 0000.0001) %MON vort_r_max                   =   6.3544218868649E-07
(PID.TID 0000.0001) %MON vort_a_mean                  =  -2.5205769228641E-05
(PID.TID 0000.0001) %MON vort_a_sd                    =   7.3402665216041E-05
(PID.TID 0000.0001) %MON vort_p_mean                  =  -3.1758669349828E-05
(PID.TID 0000.0001) %MON vort_p_sd                    =   1.3126239851747E-04
(PID.TID 0000.0001) %MON surfExpan_theta_mean         =   3.1843301889430E-06
(PID.TID 0000.0001) %MON surfExpan_salt_mean          =   7.4919937260024E-07
(PID.TID 0000.0001) // =======================================================
(PID.TID 0000.0001) // End MONITOR dynamic field statistics
(PID.TID 0000.0001) // =======================================================
time,SST,SSS,fu,fv,Q,E-P,i0,i1,a,b =   1.5552E+06  8.0940E-01  3.4685E+01 -3.3513E-02 -5.3295E-02  2.6324E+02  0.0000E+00     1     2  1.0000E-01  9.0000E-01
time,fu0,fu1,fu =   1.5552E+06 -3.5633E-02 -1.4435E-02 -3.3513E-02  1.0000E-01  9.0000E-01
 cg2d: Sum(rhs),rhsMax =   1.46681278234695E-13  1.02380213218809E+01
(PID.TID 0000.0001)                    cg2d_init_res =    6.16439638766674E-01
(PID.TID 0000.0001)                       cg2d_iters =    25
(PID.TID 0000.0001)                         cg2d_res =    3.81959103423892E-14
(PID.TID 0000.0001) // =======================================================
(PID.TID 0000.0001) // Begin MONITOR dynamic field statistics
(PID.TID 0000.0001) // =======================================================
(PID.TID 0000.0001) %MON time_tsnumber                =                    37
(PID.TID 0000.0001) %MON time_secondsf                =   1.5984000000000E+06
(PID.TID 0000.0001) %MON dynstat_eta_max              =   1.1423478475482E+00
(PID.TID 0000.0001) %MON dynstat_eta_min              =  -1.0548801114864E+00
(PID.TID 0000.0001) %MON dynstat_eta_mean             =   1.0184068035622E-17
(PID.TID 0000.0001) %MON dynstat_eta_sd               =   3.8968622261076E-01
(PID.TID 0000.0001) %MON dynstat_eta_del2             =   1.8780492340156E-02
(PID.TID 0000.0001) %MON dynstat_uvel_max             =   2.2607849471008E-01
(PID.TID 0000.0001) %MON dynstat_uvel_min             =  -1.9506271738528E-01
(PID.TID 0000.0001) %MON dynstat_uvel_mean            =  -3.2182489134672E-03
(PID.TID 0000.0001) %MON dynstat_uvel_sd              =   1.8724450001425E-02
(PID.TID 0000.0001) %MON dynstat_uvel_del2            =   5.7404513068610E-03
(PID.TID 0000.0001) %MON dynstat_vvel_max             =   2.0348662585034E-01
(PID.TID 0000.0001) %MON dynstat_vvel_min             =  -1.6469879299421E-01
(PID.TID 0000.0001) %MON dynstat_vvel_mean            =   3.8176829103880E-03
(PID.TID 0000.0001) %MON dynstat_vvel_sd              =   1.6408923546220E-02
(PID.TID 0000.0001) %MON dynstat_vvel_del2            =   5.2397311432665E-03
(PID.TID 0000.0001) %MON dynstat_wvel_max             =   3.1298873032601E-04
(PID.TID 0000.0001) %MON dynstat_wvel_min             =  -3.4081621789283E-04
(PID.TID 0000.0001) %MON dynstat_wvel_mean            =   3.4689161547576E-22
(PID.TID 0000.0001) %MON dynstat_wvel_sd              =   3.1257589371569E-05
(PID.TID 0000.0001) %MON dynstat_wvel_del2            =   1.2437995808738E-05
(PID.TID 0000.0001) %MON dynstat_theta_max            =   2.9551026961215E+01
(PID.TID 0000.0001) %MON dynstat_theta_min            =  -1.9469980188844E+00
(PID.TID 0000.0001) %MON dynstat_theta_mean           =   3.5941072643522E+00
(PID.TID 0000.0001) %MON dynstat_theta_sd             =   4.3471939316353E+00
(PID.TID 0000.0001) %MON dynstat_theta_del2           =   1.3381814530098E-01
(PID.TID 0000.0001) %MON dynstat_salt_max             =   3.7404098615670E+01
(PID.TID 0000.0001) %MON dynstat_salt_min             =   2.9805266571873E+01
(PID.TID 0000.0001) %MON dynstat_salt_mean            =   3.4716357291052E+01
(PID.TID 0000.0001) %MON dynstat_salt_sd              =   2.9428845607268E-01
(PID.TID 0000.0001) %MON dynstat_salt_del2            =   2.4998796808643E-02
(PID.TID 0000.0001) %MON advcfl_uvel_max              =   3.2735585973089E-02
(PID.TID 0000.0001) %MON advcfl_vvel_max              =   1.9767093934802E-02
(PID.TID 0000.0001) %MON advcfl_wvel_max              =   2.2331709487757E-01
(PID.TID 0000.0001) %MON advcfl_W_hf_max              =   1.5735187129626E-01
(PID.TID 0000.0001) %MON pe_b_mean                    =   1.9431722655799E-04
(PID.TID 0000.0001) %MON ke_max                       =   2.1379478350461E-02
(PID.TID 0000.0001) %MON ke_mean                      =   2.9141316532671E-04
(PID.TID 0000.0001) %MON ke_vol                       =   1.3226782436723E+18
(PID.TID 0000.0001) %MON vort_r_min                   =  -7.9934624407735E-07
(PID.TID 0000.0001) %MON vort_r_max                   =   6.4092311699327E-07
(PID.TID 0000.0001) %MON vort_a_mean                  =  -2.5205769218898E-05
(PID.TID 0000.0001) %MON vort_a_sd                    =   7.3402707525906E-05
(PID.TID 0000.0001) %MON vort_p_mean                  =  -3.1758669337552E-05
(PID.TID 0000.0001) %MON vort_p_sd                    =   1.3126250838066E-04
(PID.TID 0000.0001) %MON surfExpan_theta_mean         =   5.1819514717119E-06
(PID.TID 0000.0001) %MON surfExpan_salt_mean          =   1.1498038583569E-06
(PID.TID 0000.0001) // =======================================================
(PID.TID 0000.0001) // End MONITOR dynamic field statistics
(PID.TID 0000.0001) // =======================================================
time,SST,SSS,fu,fv,Q,E-P,i0,i1,a,b =   1.5984E+06  7.8456E-01  3.4680E+01 -3.3160E-02 -5.2634E-02  2.6282E+02  0.0000E+00     1     2  1.1667E-01  8.8333E-01
time,fu0,fu1,fu =   1.5984E+06 -3.5633E-02 -1.4435E-02 -3.3160E-02  1.1667E-01  8.8333E-01
 cg2d: Sum(rhs),rhsMax =   2.33341124200592E-13  9.99413360456256E+00
(PID.TID 0000.0001)                    cg2d_init_res =    6.10424482504746E-01
(PID.TID 0000.0001)                       cg2d_iters =    25
(PID.TID 0000.0001)                         cg2d_res =    3.93399275045655E-14
(PID.TID 0000.0001) // =======================================================
(PID.TID 0000.0001) // Begin MONITOR dynamic field statistics
(PID.TID 0000.0001) // =======================================================
(PID.TID 0000.0001) %MON time_tsnumber                =                    38
(PID.TID 0000.0001) %MON time_secondsf                =   1.6416000000000E+06
(PID.TID 0000.0001) %MON dynstat_eta_max              =   1.1144877574572E+00
(PID.TID 0000.0001) %MON dynstat_eta_min              =  -1.0487794986343E+00
(PID.TID 0000.0001) %MON dynstat_eta_mean             =   2.2202521347044E-16
(PID.TID 0000.0001) %MON dynstat_eta_sd               =   3.9244128983630E-01
(PID.TID 0000.0001) %MON dynstat_eta_del2             =   1.8697795628614E-02
(PID.TID 0000.0001) %MON dynstat_uvel_max             =   2.2258888544202E-01
(PID.TID 0000.0001) %MON dynstat_uvel_min             =  -1.9310584467933E-01
(PID.TID 0000.0001) %MON dynstat_uvel_mean            =  -3.0926640611598E-03
(PID.TID 0000.0001) %MON dynstat_uvel_sd              =   1.8410653925041E-02
(PID.TID 0000.0001) %MON dynstat_uvel_del2            =   5.7490497782710E-03
(PID.TID 0000.0001) %MON dynstat_vvel_max             =   2.0633810028647E-01
(PID.TID 0000.0001) %MON dynstat_vvel_min             =  -1.6380536240829E-01
(PID.TID 0000.0001) %MON dynstat_vvel_mean            =   3.7841464132254E-03
(PID.TID 0000.0001) %MON dynstat_vvel_sd              =   1.6298096475198E-02
(PID.TID 0000.0001) %MON dynstat_vvel_del2            =   5.2285190665338E-03
(PID.TID 0000.0001) %MON dynstat_wvel_max             =   2.9353785598398E-04
(PID.TID 0000.0001) %MON dynstat_wvel_min             =  -3.2997347963686E-04
(PID.TID 0000.0001) %MON dynstat_wvel_mean            =  -5.6020231036956E-23
(PID.TID 0000.0001) %MON dynstat_wvel_sd              =   3.1131125269114E-05
(PID.TID 0000.0001) %MON dynstat_wvel_del2            =   1.2438286772146E-05
(PID.TID 0000.0001) %MON dynstat_theta_max            =   2.9558225531744E+01
(PID.TID 0000.0001) %MON dynstat_theta_min            =  -1.9470284746032E+00
(PID.TID 0000.0001) %MON dynstat_theta_mean           =   3.5940619775904E+00
(PID.TID 0000.0001) %MON dynstat_theta_sd             =   4.3475228272189E+00
(PID.TID 0000.0001) %MON dynstat_theta_del2           =   1.3369162578604E-01
(PID.TID 0000.0001) %MON dynstat_salt_max             =   3.7402359494110E+01
(PID.TID 0000.0001) %MON dynstat_salt_min             =   2.9805616011958E+01
(PID.TID 0000.0001) %MON dynstat_salt_mean            =   3.4716337963859E+01
(PID.TID 0000.0001) %MON dynstat_salt_sd              =   2.9421878399062E-01
(PID.TID 0000.0001) %MON dynstat_salt_del2            =   2.4970705864256E-02
(PID.TID 0000.0001) %MON advcfl_uvel_max              =   3.2426793730247E-02
(PID.TID 0000.0001) %MON advcfl_vvel_max              =   2.0044091810196E-02
(PID.TID 0000.0001) %MON advcfl_wvel_max              =   2.1469283321735E-01
(PID.TID 0000.0001) %MON advcfl_W_hf_max              =   1.5083990868085E-01
(PID.TID 0000.0001) %MON pe_b_mean                    =   1.9707457063782E-04
(PID.TID 0000.0001) %MON ke_max                       =   2.0216939488304E-02
(PID.TID 0000.0001) %MON ke_mean                      =   2.8401723428930E-04
(PID.TID 0000.0001) %MON ke_vol                       =   1.3226782436723E+18
(PID.TID 0000.0001) %MON vort_r_min                   =  -8.0794646089209E-07
(PID.TID 0000.0001) %MON vort_r_max                   =   6.4718903513815E-07
(PID.TID 0000.0001) %MON vort_a_mean                  =  -2.5205769200741E-05
(PID.TID 0000.0001) %MON vort_a_sd                    =   7.3402743549839E-05
(PID.TID 0000.0001) %MON vort_p_mean                  =  -3.1758669314674E-05
(PID.TID 0000.0001) %MON vort_p_sd                    =   1.3126260717905E-04
(PID.TID 0000.0001) %MON surfExpan_theta_mean         =   7.0230659273109E-06
(PID.TID 0000.0001) %MON surfExpan_salt_mean          =   1.4840122215225E-06
(PID.TID 0000.0001) // =======================================================
(PID.TID 0000.0001) // End MONITOR dynamic field statistics
(PID.TID 0000.0001) // =======================================================
time,SST,SSS,fu,fv,Q,E-P,i0,i1,a,b =   1.6416E+06  7.5972E-01  3.4675E+01 -3.2807E-02 -5.1974E-02  2.6240E+02  0.0000E+00     1     2  1.3333E-01  8.6667E-01
time,fu0,fu1,fu =   1.6416E+06 -3.5633E-02 -1.4435E-02 -3.2807E-02  1.3333E-01  8.6667E-01
 cg2d: Sum(rhs),rhsMax =   7.43224926047503E-14  9.65836346353970E+00
(PID.TID 0000.0001)                    cg2d_init_res =    6.14347648799335E-01
(PID.TID 0000.0001)                       cg2d_iters =    25
(PID.TID 0000.0001)                         cg2d_res =    4.03565578247604E-14
(PID.TID 0000.0001) // =======================================================
(PID.TID 0000.0001) // Begin MONITOR dynamic field statistics
(PID.TID 0000.0001) // =======================================================
(PID.TID 0000.0001) %MON time_tsnumber                =                    39
(PID.TID 0000.0001) %MON time_secondsf                =   1.6848000000000E+06
(PID.TID 0000.0001) %MON dynstat_eta_max              =   1.0764073293426E+00
(PID.TID 0000.0001) %MON dynstat_eta_min              =  -1.0401514678868E+00
(PID.TID 0000.0001) %MON dynstat_eta_mean             =  -6.7342470095536E-17
(PID.TID 0000.0001) %MON dynstat_eta_sd               =   3.9520842437243E-01
(PID.TID 0000.0001) %MON dynstat_eta_del2             =   1.8718298436262E-02
(PID.TID 0000.0001) %MON dynstat_uvel_max             =   2.1619153383975E-01
(PID.TID 0000.0001) %MON dynstat_uvel_min             =  -1.9076612650234E-01
(PID.TID 0000.0001) %MON dynstat_uvel_mean            =  -2.9910078265534E-03
(PID.TID 0000.0001) %MON dynstat_uvel_sd              =   1.8120119038063E-02
(PID.TID 0000.0001) %MON dynstat_uvel_del2            =   5.7500684741636E-03
(PID.TID 0000.0001) %MON dynstat_vvel_max             =   2.0719014736726E-01
(PID.TID 0000.0001) %MON dynstat_vvel_min             =  -1.5994263843701E-01
(PID.TID 0000.0001) %MON dynstat_vvel_mean            =   3.7107529056683E-03
(PID.TID 0000.0001) %MON dynstat_vvel_sd              =   1.6166752418166E-02
(PID.TID 0000.0001) %MON dynstat_vvel_del2            =   5.2158744031496E-03
(PID.TID 0000.0001) %MON dynstat_wvel_max             =   2.7307130394223E-04
(PID.TID 0000.0001) %MON dynstat_wvel_min             =  -3.1854133200607E-04
(PID.TID 0000.0001) %MON dynstat_wvel_mean            =  -3.3816691623601E-22
(PID.TID 0000.0001) %MON dynstat_wvel_sd              =   3.1009852214317E-05
(PID.TID 0000.0001) %MON dynstat_wvel_del2            =   1.2438440890807E-05
(PID.TID 0000.0001) %MON dynstat_theta_max            =   2.9563931496172E+01
(PID.TID 0000.0001) %MON dynstat_theta_min            =  -1.9468017811933E+00
(PID.TID 0000.0001) %MON dynstat_theta_mean           =   3.5940001024309E+00
(PID.TID 0000.0001) %MON dynstat_theta_sd             =   4.3477532624983E+00
(PID.TID 0000.0001) %MON dynstat_theta_del2           =   1.3358127523334E-01
(PID.TID 0000.0001) %MON dynstat_salt_max             =   3.7400481827536E+01
(PID.TID 0000.0001) %MON dynstat_salt_min             =   2.9805884941031E+01
(PID.TID 0000.0001) %MON dynstat_salt_mean            =   3.4716316290630E+01
(PID.TID 0000.0001) %MON dynstat_salt_sd              =   2.9414919473567E-01
(PID.TID 0000.0001) %MON dynstat_salt_del2            =   2.4941249458995E-02
(PID.TID 0000.0001) %MON advcfl_uvel_max              =   3.2101756541557E-02
(PID.TID 0000.0001) %MON advcfl_vvel_max              =   2.0126861351498E-02
(PID.TID 0000.0001) %MON advcfl_wvel_max              =   1.9972943408173E-01
(PID.TID 0000.0001) %MON advcfl_W_hf_max              =   1.5676677662409E-01
(PID.TID 0000.0001) %MON pe_b_mean                    =   1.9986354546669E-04
(PID.TID 0000.0001) %MON ke_max                       =   1.8907653468167E-02
(PID.TID 0000.0001) %MON ke_mean                      =   2.7675312954187E-04
(PID.TID 0000.0001) %MON ke_vol                       =   1.3226782436723E+18
(PID.TID 0000.0001) %MON vort_r_min                   =  -8.1591073118379E-07
(PID.TID 0000.0001) %MON vort_r_max                   =   6.5382081952273E-07
(PID.TID 0000.0001) %MON vort_a_mean                  =  -2.5205769175049E-05
(PID.TID 0000.0001) %MON vort_a_sd                    =   7.3402773994438E-05
(PID.TID 0000.0001) %MON vort_p_mean                  =  -3.1758669282304E-05
(PID.TID 0000.0001) %MON vort_p_sd                    =   1.3126269577764E-04
(PID.TID 0000.0001) %MON surfExpan_theta_mean         =   8.6461024373105E-06
(PID.TID 0000.0001) %MON surfExpan_salt_mean          =   1.7416882062141E-06
(PID.TID 0000.0001) // =======================================================
(PID.TID 0000.0001) // End MONITOR dynamic field statistics
(PID.TID 0000.0001) // =======================================================
time,SST,SSS,fu,fv,Q,E-P,i0,i1,a,b =   1.6848E+06  7.3488E-01  3.4671E+01 -3.2453E-02 -5.1313E-02  2.6198E+02  0.0000E+00     1     2  1.5000E-01  8.5000E-01
time,fu0,fu1,fu =   1.6848E+06 -3.5633E-02 -1.4435E-02 -3.2453E-02  1.5000E-01  8.5000E-01
 cg2d: Sum(rhs),rhsMax =   4.68930450026050E-14  9.23489491942810E+00
(PID.TID 0000.0001)                    cg2d_init_res =    6.30132596658647E-01
(PID.TID 0000.0001)                       cg2d_iters =    25
(PID.TID 0000.0001)                         cg2d_res =    4.13422165840965E-14
(PID.TID 0000.0001) // =======================================================
(PID.TID 0000.0001) // Begin MONITOR dynamic field statistics
(PID.TID 0000.0001) // =======================================================
(PID.TID 0000.0001) %MON time_tsnumber                =                    40
(PID.TID 0000.0001) %MON time_secondsf                =   1.7280000000000E+06
(PID.TID 0000.0001) %MON dynstat_eta_max              =   1.0285674398671E+00
(PID.TID 0000.0001) %MON dynstat_eta_min              =  -1.0642124259152E+00
(PID.TID 0000.0001) %MON dynstat_eta_mean             =  -3.3795992139732E-17
(PID.TID 0000.0001) %MON dynstat_eta_sd               =   3.9788881334177E-01
(PID.TID 0000.0001) %MON dynstat_eta_del2             =   1.8737130738072E-02
(PID.TID 0000.0001) %MON dynstat_uvel_max             =   2.0700200144355E-01
(PID.TID 0000.0001) %MON dynstat_uvel_min             =  -1.9766003722734E-01
(PID.TID 0000.0001) %MON dynstat_uvel_mean            =  -2.9081831404219E-03
(PID.TID 0000.0001) %MON dynstat_uvel_sd              =   1.7857869559151E-02
(PID.TID 0000.0001) %MON dynstat_uvel_del2            =   5.7449130086350E-03
(PID.TID 0000.0001) %MON dynstat_vvel_max             =   2.0604219305722E-01
(PID.TID 0000.0001) %MON dynstat_vvel_min             =  -1.5321185055798E-01
(PID.TID 0000.0001) %MON dynstat_vvel_mean            =   3.5981988898784E-03
(PID.TID 0000.0001) %MON dynstat_vvel_sd              =   1.6018284247930E-02
(PID.TID 0000.0001) %MON dynstat_vvel_del2            =   5.2042792397298E-03
(PID.TID 0000.0001) %MON dynstat_wvel_max             =   2.6205599236985E-04
(PID.TID 0000.0001) %MON dynstat_wvel_min             =  -3.0675995235659E-04
(PID.TID 0000.0001) %MON dynstat_wvel_mean            =   2.8257787247006E-22
(PID.TID 0000.0001) %MON dynstat_wvel_sd              =   3.0889151015364E-05
(PID.TID 0000.0001) %MON dynstat_wvel_del2            =   1.2441290688816E-05
(PID.TID 0000.0001) %MON dynstat_theta_max            =   2.9568149532061E+01
(PID.TID 0000.0001) %MON dynstat_theta_min            =  -1.9463463845576E+00
(PID.TID 0000.0001) %MON dynstat_theta_mean           =   3.5939248302924E+00
(PID.TID 0000.0001) %MON dynstat_theta_sd             =   4.3478810931420E+00
(PID.TID 0000.0001) %MON dynstat_theta_del2           =   1.3351979668312E-01
(PID.TID 0000.0001) %MON dynstat_salt_max             =   3.7398461415302E+01
(PID.TID 0000.0001) %MON dynstat_salt_min             =   2.9806065622264E+01
(PID.TID 0000.0001) %MON dynstat_salt_mean            =   3.4716293242537E+01
(PID.TID 0000.0001) %MON dynstat_salt_sd              =   2.9407976787180E-01
(PID.TID 0000.0001) %MON dynstat_salt_del2            =   2.4912457427375E-02
(PID.TID 0000.0001) %MON advcfl_uvel_max              =   3.1770681807189E-02
(PID.TID 0000.0001) %MON advcfl_vvel_max              =   2.0015346795765E-02
(PID.TID 0000.0001) %MON advcfl_wvel_max              =   1.7893358290524E-01
(PID.TID 0000.0001) %MON advcfl_W_hf_max              =   1.6059435296445E-01
(PID.TID 0000.0001) %MON pe_b_mean                    =   2.0258377442405E-04
(PID.TID 0000.0001) %MON ke_max                       =   1.8285186958591E-02
(PID.TID 0000.0001) %MON ke_mean                      =   2.6973001191121E-04
(PID.TID 0000.0001) %MON ke_vol                       =   1.3226782436723E+18
(PID.TID 0000.0001) %MON vort_r_min                   =  -8.2291933562782E-07
(PID.TID 0000.0001) %MON vort_r_max                   =   6.6036355396372E-07
(PID.TID 0000.0001) %MON vort_a_mean                  =  -2.5205769143016E-05
(PID.TID 0000.0001) %MON vort_a_sd                    =   7.3402799672968E-05
(PID.TID 0000.0001) %MON vort_p_mean                  =  -3.1758669241943E-05
(PID.TID 0000.0001) %MON vort_p_sd                    =   1.3126277518398E-04
(PID.TID 0000.0001) %MON surfExpan_theta_mean         =   1.0006319856608E-05
(PID.TID 0000.0001) %MON surfExpan_salt_mean          =   1.9166328689724E-06
(PID.TID 0000.0001) // =======================================================
(PID.TID 0000.0001) // End MONITOR dynamic field statistics
(PID.TID 0000.0001) // =======================================================
time,SST,SSS,fu,fv,Q,E-P,i0,i1,a,b =   1.7280E+06  7.1005E-01  3.4666E+01 -3.2100E-02 -5.0653E-02  2.6156E+02  0.0000E+00     1     2  1.6667E-01  8.3333E-01
time,fu0,fu1,fu =   1.7280E+06 -3.5633E-02 -1.4435E-02 -3.2100E-02  1.6667E-01  8.3333E-01
 cg2d: Sum(rhs),rhsMax =   1.91485716172224E-13  8.72916007004882E+00
(PID.TID 0000.0001)                    cg2d_init_res =    6.59061058150985E-01
(PID.TID 0000.0001)                       cg2d_iters =    25
(PID.TID 0000.0001)                         cg2d_res =    4.22749871351345E-14
(PID.TID 0000.0001) // =======================================================
(PID.TID 0000.0001) // Begin MONITOR dynamic field statistics
(PID.TID 0000.0001) // =======================================================
(PID.TID 0000.0001) %MON time_tsnumber                =                    41
(PID.TID 0000.0001) %MON time_secondsf                =   1.7712000000000E+06
(PID.TID 0000.0001) %MON dynstat_eta_max              =   9.7157021665486E-01
(PID.TID 0000.0001) %MON dynstat_eta_min              =  -1.0802093219100E+00
(PID.TID 0000.0001) %MON dynstat_eta_mean             =  -1.1730653500311E-16
(PID.TID 0000.0001) %MON dynstat_eta_sd               =   4.0041082999949E-01
(PID.TID 0000.0001) %MON dynstat_eta_del2             =   1.8808390203573E-02
(PID.TID 0000.0001) %MON dynstat_uvel_max             =   1.9960909285025E-01
(PID.TID 0000.0001) %MON dynstat_uvel_min             =  -2.0871085229252E-01
(PID.TID 0000.0001) %MON dynstat_uvel_mean            =  -2.8390557020290E-03
(PID.TID 0000.0001) %MON dynstat_uvel_sd              =   1.7626863909553E-02
(PID.TID 0000.0001) %MON dynstat_uvel_del2            =   5.7336707560516E-03
(PID.TID 0000.0001) %MON dynstat_vvel_max             =   2.0293250154047E-01
(PID.TID 0000.0001) %MON dynstat_vvel_min             =  -1.5273613254611E-01
(PID.TID 0000.0001) %MON dynstat_vvel_mean            =   3.4481026888153E-03
(PID.TID 0000.0001) %MON dynstat_vvel_sd              =   1.5856396068230E-02
(PID.TID 0000.0001) %MON dynstat_vvel_del2            =   5.1931323439603E-03
(PID.TID 0000.0001) %MON dynstat_wvel_max             =   2.6970433631792E-04
(PID.TID 0000.0001) %MON dynstat_wvel_min             =  -2.9485408740065E-04
(PID.TID 0000.0001) %MON dynstat_wvel_mean            =  -5.9604898014654E-23
(PID.TID 0000.0001) %MON dynstat_wvel_sd              =   3.0762414530317E-05
(PID.TID 0000.0001) %MON dynstat_wvel_del2            =   1.2436684128606E-05
(PID.TID 0000.0001) %MON dynstat_theta_max            =   2.9571084086025E+01
(PID.TID 0000.0001) %MON dynstat_theta_min            =  -1.9457008204574E+00
(PID.TID 0000.0001) %MON dynstat_theta_mean           =   3.5938394482107E+00
(PID.TID 0000.0001) %MON dynstat_theta_sd             =   4.3479098734927E+00
(PID.TID 0000.0001) %MON dynstat_theta_del2           =   1.3341439832828E-01
(PID.TID 0000.0001) %MON dynstat_salt_max             =   3.7396296594562E+01
(PID.TID 0000.0001) %MON dynstat_salt_min             =   2.9806153482791E+01
(PID.TID 0000.0001) %MON dynstat_salt_mean            =   3.4716269785985E+01
(PID.TID 0000.0001) %MON dynstat_salt_sd              =   2.9401242784719E-01
(PID.TID 0000.0001) %MON dynstat_salt_del2            =   2.4874633890164E-02
(PID.TID 0000.0001) %MON advcfl_uvel_max              =   3.1442827205429E-02
(PID.TID 0000.0001) %MON advcfl_vvel_max              =   1.9713265201640E-02
(PID.TID 0000.0001) %MON advcfl_wvel_max              =   1.8629058265582E-01
(PID.TID 0000.0001) %MON advcfl_W_hf_max              =   1.6002804887501E-01
(PID.TID 0000.0001) %MON pe_b_mean                    =   2.0516006643121E-04
(PID.TID 0000.0001) %MON ke_max                       =   1.8302378432442E-02
(PID.TID 0000.0001) %MON ke_mean                      =   2.6303399230173E-04
(PID.TID 0000.0001) %MON ke_vol                       =   1.3226782436723E+18
(PID.TID 0000.0001) %MON vort_r_min                   =  -8.2866356375030E-07
(PID.TID 0000.0001) %MON vort_r_max                   =   6.6634668406074E-07
(PID.TID 0000.0001) %MON vort_a_mean                  =  -2.5205769106052E-05
(PID.TID 0000.0001) %MON vort_a_sd                    =   7.3402821463509E-05
(PID.TID 0000.0001) %MON vort_p_mean                  =  -3.1758669195368E-05
(PID.TID 0000.0001) %MON vort_p_sd                    =   1.3126284648372E-04
(PID.TID 0000.0001) %MON surfExpan_theta_mean         =   1.1087290230052E-05
(PID.TID 0000.0001) %MON surfExpan_salt_mean          =   2.0081152622775E-06
(PID.TID 0000.0001) // =======================================================
(PID.TID 0000.0001) // End MONITOR dynamic field statistics
(PID.TID 0000.0001) // =======================================================
time,SST,SSS,fu,fv,Q,E-P,i0,i1,a,b =   1.7712E+06  6.8521E-01  3.4661E+01 -3.1747E-02 -4.9993E-02  2.6113E+02  0.0000E+00     1     2  1.8333E-01  8.1667E-01
time,fu0,fu1,fu =   1.7712E+06 -3.5633E-02 -1.4435E-02 -3.1747E-02  1.8333E-01  8.1667E-01
 cg2d: Sum(rhs),rhsMax =   8.29752933029226E-14  8.14764854538766E+00
(PID.TID 0000.0001)                    cg2d_init_res =    7.01965809867903E-01
(PID.TID 0000.0001)                       cg2d_iters =    25
(PID.TID 0000.0001)                         cg2d_res =    4.30791758943592E-14
(PID.TID 0000.0001) // =======================================================
(PID.TID 0000.0001) // Begin MONITOR dynamic field statistics
(PID.TID 0000.0001) // =======================================================
(PID.TID 0000.0001) %MON time_tsnumber                =                    42
(PID.TID 0000.0001) %MON time_secondsf                =   1.8144000000000E+06
(PID.TID 0000.0001) %MON dynstat_eta_max              =   9.0613949326714E-01
(PID.TID 0000.0001) %MON dynstat_eta_min              =  -1.0864506422860E+00
(PID.TID 0000.0001) %MON dynstat_eta_mean             =   2.1635022368077E-16
(PID.TID 0000.0001) %MON dynstat_eta_sd               =   4.0272823147898E-01
(PID.TID 0000.0001) %MON dynstat_eta_del2             =   1.8931136963624E-02
(PID.TID 0000.0001) %MON dynstat_uvel_max             =   1.9213235219594E-01
(PID.TID 0000.0001) %MON dynstat_uvel_min             =  -2.1685311261762E-01
(PID.TID 0000.0001) %MON dynstat_uvel_mean            =  -2.7786627643169E-03
(PID.TID 0000.0001) %MON dynstat_uvel_sd              =   1.7428044373484E-02
(PID.TID 0000.0001) %MON dynstat_uvel_del2            =   5.7156338815122E-03
(PID.TID 0000.0001) %MON dynstat_vvel_max             =   1.9793625385932E-01
(PID.TID 0000.0001) %MON dynstat_vvel_min             =  -1.5372757290099E-01
(PID.TID 0000.0001) %MON dynstat_vvel_mean            =   3.2628791982288E-03
(PID.TID 0000.0001) %MON dynstat_vvel_sd              =   1.5685212165416E-02
(PID.TID 0000.0001) %MON dynstat_vvel_del2            =   5.1820447123557E-03
(PID.TID 0000.0001) %MON dynstat_wvel_max             =   2.7663209575063E-04
(PID.TID 0000.0001) %MON dynstat_wvel_min             =  -2.8302405423065E-04
(PID.TID 0000.0001) %MON dynstat_wvel_mean            =   3.1511694389005E-22
(PID.TID 0000.0001) %MON dynstat_wvel_sd              =   3.0621861988963E-05
(PID.TID 0000.0001) %MON dynstat_wvel_del2            =   1.2420626396807E-05
(PID.TID 0000.0001) %MON dynstat_theta_max            =   2.9581255588337E+01
(PID.TID 0000.0001) %MON dynstat_theta_min            =  -1.9448925468359E+00
(PID.TID 0000.0001) %MON dynstat_theta_mean           =   3.5937471615190E+00
(PID.TID 0000.0001) %MON dynstat_theta_sd             =   4.3478443314535E+00
(PID.TID 0000.0001) %MON dynstat_theta_del2           =   1.3331727126046E-01
(PID.TID 0000.0001) %MON dynstat_salt_max             =   3.7393988125026E+01
(PID.TID 0000.0001) %MON dynstat_salt_min             =   2.9806147010772E+01
(PID.TID 0000.0001) %MON dynstat_salt_mean            =   3.4716246820228E+01
(PID.TID 0000.0001) %MON dynstat_salt_sd              =   2.9394725497626E-01
(PID.TID 0000.0001) %MON dynstat_salt_del2            =   2.4841384259372E-02
(PID.TID 0000.0001) %MON advcfl_uvel_max              =   3.1126330724000E-02
(PID.TID 0000.0001) %MON advcfl_vvel_max              =   1.9227919804506E-02
(PID.TID 0000.0001) %MON advcfl_wvel_max              =   1.8859175625451E-01
(PID.TID 0000.0001) %MON advcfl_W_hf_max              =   1.5496855601627E-01
(PID.TID 0000.0001) %MON pe_b_mean                    =   2.0754169059968E-04
(PID.TID 0000.0001) %MON ke_max                       =   1.8267160322310E-02
(PID.TID 0000.0001) %MON ke_mean                      =   2.5673137584148E-04
(PID.TID 0000.0001) %MON ke_vol                       =   1.3226782436723E+18
(PID.TID 0000.0001) %MON vort_r_min                   =  -8.3285024784722E-07
(PID.TID 0000.0001) %MON vort_r_max                   =   6.7130206104810E-07
(PID.TID 0000.0001) %MON vort_a_mean                  =  -2.5205769065685E-05
(PID.TID 0000.0001) %MON vort_a_sd                    =   7.3402840267943E-05
(PID.TID 0000.0001) %MON vort_p_mean                  =  -3.1758669144507E-05
(PID.TID 0000.0001) %MON vort_p_sd                    =   1.3126291076814E-04
(PID.TID 0000.0001) %MON surfExpan_theta_mean         =   1.1881367048695E-05
(PID.TID 0000.0001) %MON surfExpan_salt_mean          =   2.0177234354484E-06
(PID.TID 0000.0001) // =======================================================
(PID.TID 0000.0001) // End MONITOR dynamic field statistics
(PID.TID 0000.0001) // =======================================================
time,SST,SSS,fu,fv,Q,E-P,i0,i1,a,b =   1.8144E+06  6.6037E-01  3.4656E+01 -3.1393E-02 -4.9332E-02  2.6071E+02  0.0000E+00     1     2  2.0000E-01  8.0000E-01
time,fu0,fu1,fu =   1.8144E+06 -3.5633E-02 -1.4435E-02 -3.1393E-02  2.0000E-01  8.0000E-01
 cg2d: Sum(rhs),rhsMax =  -9.77690151060528E-14  7.68469225908182E+00
(PID.TID 0000.0001)                    cg2d_init_res =    7.41331564870180E-01
(PID.TID 0000.0001)                       cg2d_iters =    25
(PID.TID 0000.0001)                         cg2d_res =    4.26677774784348E-14
(PID.TID 0000.0001) // =======================================================
(PID.TID 0000.0001) // Begin MONITOR dynamic field statistics
(PID.TID 0000.0001) // =======================================================
(PID.TID 0000.0001) %MON time_tsnumber                =                    43
(PID.TID 0000.0001) %MON time_secondsf                =   1.8576000000000E+06
(PID.TID 0000.0001) %MON dynstat_eta_max              =   8.3355386955783E-01
(PID.TID 0000.0001) %MON dynstat_eta_min              =  -1.1081347577350E+00
(PID.TID 0000.0001) %MON dynstat_eta_mean             =   9.0590037989493E-17
(PID.TID 0000.0001) %MON dynstat_eta_sd               =   4.0481492891429E-01
(PID.TID 0000.0001) %MON dynstat_eta_del2             =   1.9057922241549E-02
(PID.TID 0000.0001) %MON dynstat_uvel_max             =   1.8116953093186E-01
(PID.TID 0000.0001) %MON dynstat_uvel_min             =  -2.2182695015049E-01
(PID.TID 0000.0001) %MON dynstat_uvel_mean            =  -2.7224006579620E-03
(PID.TID 0000.0001) %MON dynstat_uvel_sd              =   1.7260602009132E-02
(PID.TID 0000.0001) %MON dynstat_uvel_del2            =   5.6914366581453E-03
(PID.TID 0000.0001) %MON dynstat_vvel_max             =   1.9116249259280E-01
(PID.TID 0000.0001) %MON dynstat_vvel_min             =  -1.5403098085882E-01
(PID.TID 0000.0001) %MON dynstat_vvel_mean            =   3.0456057352675E-03
(PID.TID 0000.0001) %MON dynstat_vvel_sd              =   1.5509448800894E-02
(PID.TID 0000.0001) %MON dynstat_vvel_del2            =   5.1714807620369E-03
(PID.TID 0000.0001) %MON dynstat_wvel_max             =   2.8286999957602E-04
(PID.TID 0000.0001) %MON dynstat_wvel_min             =  -2.7144057554566E-04
(PID.TID 0000.0001) %MON dynstat_wvel_mean            =  -9.7268322159565E-23
(PID.TID 0000.0001) %MON dynstat_wvel_sd              =   3.0460067701699E-05
(PID.TID 0000.0001) %MON dynstat_wvel_del2            =   1.2390753411576E-05
(PID.TID 0000.0001) %MON dynstat_theta_max            =   2.9591806143906E+01
(PID.TID 0000.0001) %MON dynstat_theta_min            =  -1.9439601872616E+00
(PID.TID 0000.0001) %MON dynstat_theta_mean           =   3.5936509395300E+00
(PID.TID 0000.0001) %MON dynstat_theta_sd             =   4.3476944082527E+00
(PID.TID 0000.0001) %MON dynstat_theta_del2           =   1.3318199181752E-01
(PID.TID 0000.0001) %MON dynstat_salt_max             =   3.7391643341027E+01
(PID.TID 0000.0001) %MON dynstat_salt_min             =   2.9806047480809E+01
(PID.TID 0000.0001) %MON dynstat_salt_mean            =   3.4716225165240E+01
(PID.TID 0000.0001) %MON dynstat_salt_sd              =   2.9388585459560E-01
(PID.TID 0000.0001) %MON dynstat_salt_del2            =   2.4801571138412E-02
(PID.TID 0000.0001) %MON advcfl_uvel_max              =   3.0828093758223E-02
(PID.TID 0000.0001) %MON advcfl_vvel_max              =   1.8569903216499E-02
(PID.TID 0000.0001) %MON advcfl_wvel_max              =   1.8480871148317E-01
(PID.TID 0000.0001) %MON advcfl_W_hf_max              =   1.4555345255052E-01
(PID.TID 0000.0001) %MON pe_b_mean                    =   2.0969797690958E-04
(PID.TID 0000.0001) %MON ke_max                       =   1.8407427124348E-02
(PID.TID 0000.0001) %MON ke_mean                      =   2.5087508704791E-04
(PID.TID 0000.0001) %MON ke_vol                       =   1.3226782436723E+18
(PID.TID 0000.0001) %MON vort_r_min                   =  -8.3785623568048E-07
(PID.TID 0000.0001) %MON vort_r_max                   =   6.7477700917006E-07
(PID.TID 0000.0001) %MON vort_a_mean                  =  -2.5205769023347E-05
(PID.TID 0000.0001) %MON vort_a_sd                    =   7.3402856973450E-05
(PID.TID 0000.0001) %MON vort_p_mean                  =  -3.1758669091162E-05
(PID.TID 0000.0001) %MON vort_p_sd                    =   1.3126296905722E-04
(PID.TID 0000.0001) %MON surfExpan_theta_mean         =   1.2399366769613E-05
(PID.TID 0000.0001) %MON surfExpan_salt_mean          =   1.9506646267964E-06
(PID.TID 0000.0001) // =======================================================
(PID.TID 0000.0001) // End MONITOR dynamic field statistics
(PID.TID 0000.0001) // =======================================================
time,SST,SSS,fu,fv,Q,E-P,i0,i1,a,b =   1.8576E+06  6.3553E-01  3.4651E+01 -3.1040E-02 -4.8672E-02  2.6029E+02  0.0000E+00     1     2  2.1667E-01  7.8333E-01
time,fu0,fu1,fu =   1.8576E+06 -3.5633E-02 -1.4435E-02 -3.1040E-02  2.1667E-01  7.8333E-01
 cg2d: Sum(rhs),rhsMax =  -5.27633492453106E-14  7.71510905879737E+00
(PID.TID 0000.0001)                    cg2d_init_res =    7.34299246107731E-01
(PID.TID 0000.0001)                       cg2d_iters =    25
(PID.TID 0000.0001)                         cg2d_res =    3.89604573633392E-14
(PID.TID 0000.0001) // =======================================================
(PID.TID 0000.0001) // Begin MONITOR dynamic field statistics
(PID.TID 0000.0001) // =======================================================
(PID.TID 0000.0001) %MON time_tsnumber                =                    44
(PID.TID 0000.0001) %MON time_secondsf                =   1.9008000000000E+06
(PID.TID 0000.0001) %MON dynstat_eta_max              =   8.9426613526102E-01
(PID.TID 0000.0001) %MON dynstat_eta_min              =  -1.1294867877467E+00
(PID.TID 0000.0001) %MON dynstat_eta_mean             =   7.1346114910253E-17
(PID.TID 0000.0001) %MON dynstat_eta_sd               =   4.0665849659486E-01
(PID.TID 0000.0001) %MON dynstat_eta_del2             =   1.9164928412261E-02
(PID.TID 0000.0001) %MON dynstat_uvel_max             =   1.6697025755978E-01
(PID.TID 0000.0001) %MON dynstat_uvel_min             =  -2.2350758110887E-01
(PID.TID 0000.0001) %MON dynstat_uvel_mean            =  -2.6661724761810E-03
(PID.TID 0000.0001) %MON dynstat_uvel_sd              =   1.7122401903856E-02
(PID.TID 0000.0001) %MON dynstat_uvel_del2            =   5.6632052695736E-03
(PID.TID 0000.0001) %MON dynstat_vvel_max             =   1.8369155741734E-01
(PID.TID 0000.0001) %MON dynstat_vvel_min             =  -1.5364506471787E-01
(PID.TID 0000.0001) %MON dynstat_vvel_mean            =   2.7998960803570E-03
(PID.TID 0000.0001) %MON dynstat_vvel_sd              =   1.5334539786173E-02
(PID.TID 0000.0001) %MON dynstat_vvel_del2            =   5.1603284767131E-03
(PID.TID 0000.0001) %MON dynstat_wvel_max             =   2.8844918553545E-04
(PID.TID 0000.0001) %MON dynstat_wvel_min             =  -2.6024369580224E-04
(PID.TID 0000.0001) %MON dynstat_wvel_mean            =  -1.4945189365785E-22
(PID.TID 0000.0001) %MON dynstat_wvel_sd              =   3.0271514556058E-05
(PID.TID 0000.0001) %MON dynstat_wvel_del2            =   1.2348495987313E-05
(PID.TID 0000.0001) %MON dynstat_theta_max            =   2.9606631765759E+01
(PID.TID 0000.0001) %MON dynstat_theta_min            =  -1.9430441349508E+00
(PID.TID 0000.0001) %MON dynstat_theta_mean           =   3.5935535139438E+00
(PID.TID 0000.0001) %MON dynstat_theta_sd             =   4.3474705468934E+00
(PID.TID 0000.0001) %MON dynstat_theta_del2           =   1.3304862207219E-01
(PID.TID 0000.0001) %MON dynstat_salt_max             =   3.7389300454293E+01
(PID.TID 0000.0001) %MON dynstat_salt_min             =   2.9805858536414E+01
(PID.TID 0000.0001) %MON dynstat_salt_mean            =   3.4716205533702E+01
(PID.TID 0000.0001) %MON dynstat_salt_sd              =   2.9382881346458E-01
(PID.TID 0000.0001) %MON dynstat_salt_del2            =   2.4761130296245E-02
(PID.TID 0000.0001) %MON advcfl_uvel_max              =   3.0553749235202E-02
(PID.TID 0000.0001) %MON advcfl_vvel_max              =   1.7844161773900E-02
(PID.TID 0000.0001) %MON advcfl_wvel_max              =   1.7525683432030E-01
(PID.TID 0000.0001) %MON advcfl_W_hf_max              =   1.3805885859358E-01
(PID.TID 0000.0001) %MON pe_b_mean                    =   2.1161229713592E-04
(PID.TID 0000.0001) %MON ke_max                       =   1.8575046712000E-02
(PID.TID 0000.0001) %MON ke_mean                      =   2.4551182951883E-04
(PID.TID 0000.0001) %MON ke_vol                       =   1.3226782436723E+18
(PID.TID 0000.0001) %MON vort_r_min                   =  -8.6003589695718E-07
(PID.TID 0000.0001) %MON vort_r_max                   =   6.7634722291880E-07
(PID.TID 0000.0001) %MON vort_a_mean                  =  -2.5205768980248E-05
(PID.TID 0000.0001) %MON vort_a_sd                    =   7.3402872418118E-05
(PID.TID 0000.0001) %MON vort_p_mean                  =  -3.1758669036859E-05
(PID.TID 0000.0001) %MON vort_p_sd                    =   1.3126302225655E-04
(PID.TID 0000.0001) %MON surfExpan_theta_mean         =   1.2664591983708E-05
(PID.TID 0000.0001) %MON surfExpan_salt_mean          =   1.8150393904371E-06
(PID.TID 0000.0001) // =======================================================
(PID.TID 0000.0001) // End MONITOR dynamic field statistics
(PID.TID 0000.0001) // =======================================================
time,SST,SSS,fu,fv,Q,E-P,i0,i1,a,b =   1.9008E+06  6.1069E-01  3.4646E+01 -3.0687E-02 -4.8012E-02  2.5987E+02  0.0000E+00     1     2  2.3333E-01  7.6667E-01
time,fu0,fu1,fu =   1.9008E+06 -3.5633E-02 -1.4435E-02 -3.0687E-02  2.3333E-01  7.6667E-01
 cg2d: Sum(rhs),rhsMax =  -7.56339435525888E-14  7.94458113769212E+00
(PID.TID 0000.0001)                    cg2d_init_res =    7.06079131562980E-01
(PID.TID 0000.0001)                       cg2d_iters =    25
(PID.TID 0000.0001)                         cg2d_res =    3.40411752478785E-14
(PID.TID 0000.0001) // =======================================================
(PID.TID 0000.0001) // Begin MONITOR dynamic field statistics
(PID.TID 0000.0001) // =======================================================
(PID.TID 0000.0001) %MON time_tsnumber                =                    45
(PID.TID 0000.0001) %MON time_secondsf                =   1.9440000000000E+06
(PID.TID 0000.0001) %MON dynstat_eta_max              =   9.6110825919303E-01
(PID.TID 0000.0001) %MON dynstat_eta_min              =  -1.1438713029488E+00
(PID.TID 0000.0001) %MON dynstat_eta_mean             =   5.5323987073464E-17
(PID.TID 0000.0001) %MON dynstat_eta_sd               =   4.0825440300847E-01
(PID.TID 0000.0001) %MON dynstat_eta_del2             =   1.9223590875112E-02
(PID.TID 0000.0001) %MON dynstat_uvel_max             =   1.4986118952552E-01
(PID.TID 0000.0001) %MON dynstat_uvel_min             =  -2.2190073623175E-01
(PID.TID 0000.0001) %MON dynstat_uvel_mean            =  -2.6064974491710E-03
(PID.TID 0000.0001) %MON dynstat_uvel_sd              =   1.7010500271253E-02
(PID.TID 0000.0001) %MON dynstat_uvel_del2            =   5.6305594423084E-03
(PID.TID 0000.0001) %MON dynstat_vvel_max             =   1.7501479379430E-01
(PID.TID 0000.0001) %MON dynstat_vvel_min             =  -1.5257497899920E-01
(PID.TID 0000.0001) %MON dynstat_vvel_mean            =   2.5297672146275E-03
(PID.TID 0000.0001) %MON dynstat_vvel_sd              =   1.5166624416639E-02
(PID.TID 0000.0001) %MON dynstat_vvel_del2            =   5.1482191088202E-03
(PID.TID 0000.0001) %MON dynstat_wvel_max             =   2.9339932229498E-04
(PID.TID 0000.0001) %MON dynstat_wvel_min             =  -2.4954384544316E-04
(PID.TID 0000.0001) %MON dynstat_wvel_mean            =  -3.0420335886801E-22
(PID.TID 0000.0001) %MON dynstat_wvel_sd              =   3.0053920449985E-05
(PID.TID 0000.0001) %MON dynstat_wvel_del2            =   1.2289107897967E-05
(PID.TID 0000.0001) %MON dynstat_theta_max            =   2.9620324186963E+01
(PID.TID 0000.0001) %MON dynstat_theta_min            =  -1.9423409107805E+00
(PID.TID 0000.0001) %MON dynstat_theta_mean           =   3.5934571661573E+00
(PID.TID 0000.0001) %MON dynstat_theta_sd             =   4.3471850113634E+00
(PID.TID 0000.0001) %MON dynstat_theta_del2           =   1.3293967286331E-01
(PID.TID 0000.0001) %MON dynstat_salt_max             =   3.7386927885663E+01
(PID.TID 0000.0001) %MON dynstat_salt_min             =   2.9805585665262E+01
(PID.TID 0000.0001) %MON dynstat_salt_mean            =   3.4716188501694E+01
(PID.TID 0000.0001) %MON dynstat_salt_sd              =   2.9377705104085E-01
(PID.TID 0000.0001) %MON dynstat_salt_del2            =   2.4728553522322E-02
(PID.TID 0000.0001) %MON advcfl_uvel_max              =   3.0307693535594E-02
(PID.TID 0000.0001) %MON advcfl_vvel_max              =   1.7001283767201E-02
(PID.TID 0000.0001) %MON advcfl_wvel_max              =   1.6044264026509E-01
(PID.TID 0000.0001) %MON advcfl_W_hf_max              =   1.2653242298740E-01
(PID.TID 0000.0001) %MON pe_b_mean                    =   2.1327647527494E-04
(PID.TID 0000.0001) %MON ke_max                       =   1.8718020343654E-02
(PID.TID 0000.0001) %MON ke_mean                      =   2.4068795183328E-04
(PID.TID 0000.0001) %MON ke_vol                       =   1.3226782436723E+18
(PID.TID 0000.0001) %MON vort_r_min                   =  -8.8170187425597E-07
(PID.TID 0000.0001) %MON vort_r_max                   =   6.7562802968430E-07
(PID.TID 0000.0001) %MON vort_a_mean                  =  -2.5205768937772E-05
(PID.TID 0000.0001) %MON vort_a_sd                    =   7.3402887357043E-05
(PID.TID 0000.0001) %MON vort_p_mean                  =  -3.1758668983340E-05
(PID.TID 0000.0001) %MON vort_p_sd                    =   1.3126307106180E-04
(PID.TID 0000.0001) %MON surfExpan_theta_mean         =   1.2709322571135E-05
(PID.TID 0000.0001) %MON surfExpan_salt_mean          =   1.6215737973745E-06
(PID.TID 0000.0001) // =======================================================
(PID.TID 0000.0001) // End MONITOR dynamic field statistics
(PID.TID 0000.0001) // =======================================================
time,SST,SSS,fu,fv,Q,E-P,i0,i1,a,b =   1.9440E+06  5.8585E-01  3.4641E+01 -3.0333E-02 -4.7351E-02  2.5945E+02  0.0000E+00     1     2  2.5000E-01  7.5000E-01
time,fu0,fu1,fu =   1.9440E+06 -3.5633E-02 -1.4435E-02 -3.0333E-02  2.5000E-01  7.5000E-01
 cg2d: Sum(rhs),rhsMax =  -2.01810790301238E-13  8.35758901422767E+00
(PID.TID 0000.0001)                    cg2d_init_res =    6.60858959102732E-01
(PID.TID 0000.0001)                       cg2d_iters =    25
(PID.TID 0000.0001)                         cg2d_res =    2.85049885842459E-14
(PID.TID 0000.0001) // =======================================================
(PID.TID 0000.0001) // Begin MONITOR dynamic field statistics
(PID.TID 0000.0001) // =======================================================
(PID.TID 0000.0001) %MON time_tsnumber                =                    46
(PID.TID 0000.0001) %MON time_secondsf                =   1.9872000000000E+06
(PID.TID 0000.0001) %MON dynstat_eta_max              =   1.0102916767097E+00
(PID.TID 0000.0001) %MON dynstat_eta_min              =  -1.1578391315948E+00
(PID.TID 0000.0001) %MON dynstat_eta_mean             =   6.8127753666179E-17
(PID.TID 0000.0001) %MON dynstat_eta_sd               =   4.0960226776510E-01
(PID.TID 0000.0001) %MON dynstat_eta_del2             =   1.9276142844612E-02
(PID.TID 0000.0001) %MON dynstat_uvel_max             =   1.4410834195108E-01
(PID.TID 0000.0001) %MON dynstat_uvel_min             =  -2.1713288536115E-01
(PID.TID 0000.0001) %MON dynstat_uvel_mean            =  -2.5405788925710E-03
(PID.TID 0000.0001) %MON dynstat_uvel_sd              =   1.6921666961124E-02
(PID.TID 0000.0001) %MON dynstat_uvel_del2            =   5.5959989959013E-03
(PID.TID 0000.0001) %MON dynstat_vvel_max             =   1.7550481146278E-01
(PID.TID 0000.0001) %MON dynstat_vvel_min             =  -1.5083210991794E-01
(PID.TID 0000.0001) %MON dynstat_vvel_mean            =   2.2395098986125E-03
(PID.TID 0000.0001) %MON dynstat_vvel_sd              =   1.5012316464735E-02
(PID.TID 0000.0001) %MON dynstat_vvel_del2            =   5.1361372881283E-03
(PID.TID 0000.0001) %MON dynstat_wvel_max             =   2.9774759104023E-04
(PID.TID 0000.0001) %MON dynstat_wvel_min             =  -2.3942389157471E-04
(PID.TID 0000.0001) %MON dynstat_wvel_mean            =  -5.2865168816973E-22
(PID.TID 0000.0001) %MON dynstat_wvel_sd              =   2.9809052802879E-05
(PID.TID 0000.0001) %MON dynstat_wvel_del2            =   1.2218096487867E-05
(PID.TID 0000.0001) %MON dynstat_theta_max            =   2.9632693665876E+01
(PID.TID 0000.0001) %MON dynstat_theta_min            =  -1.9410856516346E+00
(PID.TID 0000.0001) %MON dynstat_theta_mean           =   3.5933635738212E+00
(PID.TID 0000.0001) %MON dynstat_theta_sd             =   4.3468527255056E+00
(PID.TID 0000.0001) %MON dynstat_theta_del2           =   1.3282067071004E-01
(PID.TID 0000.0001) %MON dynstat_salt_max             =   3.7384525591174E+01
(PID.TID 0000.0001) %MON dynstat_salt_min             =   2.9805235607334E+01
(PID.TID 0000.0001) %MON dynstat_salt_mean            =   3.4716174483545E+01
(PID.TID 0000.0001) %MON dynstat_salt_sd              =   2.9373164647569E-01
(PID.TID 0000.0001) %MON dynstat_salt_del2            =   2.4687483604393E-02
(PID.TID 0000.0001) %MON advcfl_uvel_max              =   3.0093113771030E-02
(PID.TID 0000.0001) %MON advcfl_vvel_max              =   1.7048885054224E-02
(PID.TID 0000.0001) %MON advcfl_wvel_max              =   1.4103775644398E-01
(PID.TID 0000.0001) %MON advcfl_W_hf_max              =   1.3058799703899E-01
(PID.TID 0000.0001) %MON pe_b_mean                    =   2.1468707799906E-04
(PID.TID 0000.0001) %MON ke_max                       =   1.8837121107916E-02
(PID.TID 0000.0001) %MON ke_mean                      =   2.3645221784045E-04
(PID.TID 0000.0001) %MON ke_vol                       =   1.3226782436723E+18
(PID.TID 0000.0001) %MON vort_r_min                   =  -9.0277058424927E-07
(PID.TID 0000.0001) %MON vort_r_max                   =   6.7228493037964E-07
(PID.TID 0000.0001) %MON vort_a_mean                  =  -2.5205768896861E-05
(PID.TID 0000.0001) %MON vort_a_sd                    =   7.3402902445641E-05
(PID.TID 0000.0001) %MON vort_p_mean                  =  -3.1758668931793E-05
(PID.TID 0000.0001) %MON vort_p_sd                    =   1.3126311598167E-04
(PID.TID 0000.0001) %MON surfExpan_theta_mean         =   1.2574843171670E-05
(PID.TID 0000.0001) %MON surfExpan_salt_mean          =   1.3827390712278E-06
(PID.TID 0000.0001) // =======================================================
(PID.TID 0000.0001) // End MONITOR dynamic field statistics
(PID.TID 0000.0001) // =======================================================
time,SST,SSS,fu,fv,Q,E-P,i0,i1,a,b =   1.9872E+06  5.6102E-01  3.4636E+01 -2.9980E-02 -4.6691E-02  2.5903E+02  0.0000E+00     1     2  2.6667E-01  7.3333E-01
time,fu0,fu1,fu =   1.9872E+06 -3.5633E-02 -1.4435E-02 -2.9980E-02  2.6667E-01  7.3333E-01
 cg2d: Sum(rhs),rhsMax =   1.65950586605845E-13  8.64096095427663E+00
(PID.TID 0000.0001)                    cg2d_init_res =    6.25865029143149E-01
(PID.TID 0000.0001)                       cg2d_iters =    24
(PID.TID 0000.0001)                         cg2d_res =    9.94424912817790E-14
(PID.TID 0000.0001) // =======================================================
(PID.TID 0000.0001) // Begin MONITOR dynamic field statistics
(PID.TID 0000.0001) // =======================================================
(PID.TID 0000.0001) %MON time_tsnumber                =                    47
(PID.TID 0000.0001) %MON time_secondsf                =   2.0304000000000E+06
(PID.TID 0000.0001) %MON dynstat_eta_max              =   1.0510920939189E+00
(PID.TID 0000.0001) %MON dynstat_eta_min              =  -1.1714909792961E+00
(PID.TID 0000.0001) %MON dynstat_eta_mean             =  -1.4362448783076E-16
(PID.TID 0000.0001) %MON dynstat_eta_sd               =   4.1070473329541E-01
(PID.TID 0000.0001) %MON dynstat_eta_del2             =   1.9329034424782E-02
(PID.TID 0000.0001) %MON dynstat_uvel_max             =   1.4349283571066E-01
(PID.TID 0000.0001) %MON dynstat_uvel_min             =  -2.0943767548853E-01
(PID.TID 0000.0001) %MON dynstat_uvel_mean            =  -2.4663456829484E-03
(PID.TID 0000.0001) %MON dynstat_uvel_sd              =   1.6852877904872E-02
(PID.TID 0000.0001) %MON dynstat_uvel_del2            =   5.5596521232251E-03
(PID.TID 0000.0001) %MON dynstat_vvel_max             =   1.7553918951083E-01
(PID.TID 0000.0001) %MON dynstat_vvel_min             =  -1.4843494248343E-01
(PID.TID 0000.0001) %MON dynstat_vvel_mean            =   1.9335814071862E-03
(PID.TID 0000.0001) %MON dynstat_vvel_sd              =   1.4878205515405E-02
(PID.TID 0000.0001) %MON dynstat_vvel_del2            =   5.1267117899968E-03
(PID.TID 0000.0001) %MON dynstat_wvel_max             =   3.0151804244392E-04
(PID.TID 0000.0001) %MON dynstat_wvel_min             =  -2.3771513723366E-04
(PID.TID 0000.0001) %MON dynstat_wvel_mean            =   3.9839979091228E-22
(PID.TID 0000.0001) %MON dynstat_wvel_sd              =   2.9542381077983E-05
(PID.TID 0000.0001) %MON dynstat_wvel_del2            =   1.2135479111189E-05
(PID.TID 0000.0001) %MON dynstat_theta_max            =   2.9643629938410E+01
(PID.TID 0000.0001) %MON dynstat_theta_min            =  -1.9405386873938E+00
(PID.TID 0000.0001) %MON dynstat_theta_mean           =   3.5932740708749E+00
(PID.TID 0000.0001) %MON dynstat_theta_sd             =   4.3464857670577E+00
(PID.TID 0000.0001) %MON dynstat_theta_del2           =   1.3275528913572E-01
(PID.TID 0000.0001) %MON dynstat_salt_max             =   3.7382093444656E+01
(PID.TID 0000.0001) %MON dynstat_salt_min             =   2.9804815737612E+01
(PID.TID 0000.0001) %MON dynstat_salt_mean            =   3.4716163740762E+01
(PID.TID 0000.0001) %MON dynstat_salt_sd              =   2.9369287812815E-01
(PID.TID 0000.0001) %MON dynstat_salt_del2            =   2.4648339205058E-02
(PID.TID 0000.0001) %MON advcfl_uvel_max              =   2.9912116732180E-02
(PID.TID 0000.0001) %MON advcfl_vvel_max              =   1.7052224605914E-02
(PID.TID 0000.0001) %MON advcfl_wvel_max              =   1.3441813755558E-01
(PID.TID 0000.0001) %MON advcfl_W_hf_max              =   1.3454683811237E-01
(PID.TID 0000.0001) %MON pe_b_mean                    =   2.1584431587102E-04
(PID.TID 0000.0001) %MON ke_max                       =   1.8932968017741E-02
(PID.TID 0000.0001) %MON ke_mean                      =   2.3285502986188E-04
(PID.TID 0000.0001) %MON ke_vol                       =   1.3226782436723E+18
(PID.TID 0000.0001) %MON vort_r_min                   =  -9.2315355074490E-07
(PID.TID 0000.0001) %MON vort_r_max                   =   6.6604283744454E-07
(PID.TID 0000.0001) %MON vort_a_mean                  =  -2.5205768858192E-05
(PID.TID 0000.0001) %MON vort_a_sd                    =   7.3402918220452E-05
(PID.TID 0000.0001) %MON vort_p_mean                  =  -3.1758668883071E-05
(PID.TID 0000.0001) %MON vort_p_sd                    =   1.3126315724705E-04
(PID.TID 0000.0001) %MON surfExpan_theta_mean         =   1.2303430456869E-05
(PID.TID 0000.0001) %MON surfExpan_salt_mean          =   1.1122418884572E-06
(PID.TID 0000.0001) // =======================================================
(PID.TID 0000.0001) // End MONITOR dynamic field statistics
(PID.TID 0000.0001) // =======================================================
time,SST,SSS,fu,fv,Q,E-P,i0,i1,a,b =   2.0304E+06  5.3618E-01  3.4631E+01 -2.9627E-02 -4.6031E-02  2.5861E+02  0.0000E+00     1     2  2.8333E-01  7.1667E-01
time,fu0,fu1,fu =   2.0304E+06 -3.5633E-02 -1.4435E-02 -2.9627E-02  2.8333E-01  7.1667E-01
 cg2d: Sum(rhs),rhsMax =   4.05619982046801E-13  8.90282407408202E+00
(PID.TID 0000.0001)                    cg2d_init_res =    5.92306239580434E-01
(PID.TID 0000.0001)                       cg2d_iters =    24
(PID.TID 0000.0001)                         cg2d_res =    8.09488015496045E-14
(PID.TID 0000.0001) // =======================================================
(PID.TID 0000.0001) // Begin MONITOR dynamic field statistics
(PID.TID 0000.0001) // =======================================================
(PID.TID 0000.0001) %MON time_tsnumber                =                    48
(PID.TID 0000.0001) %MON time_secondsf                =   2.0736000000000E+06
(PID.TID 0000.0001) %MON dynstat_eta_max              =   1.0809486895089E+00
(PID.TID 0000.0001) %MON dynstat_eta_min              =  -1.1761446192267E+00
(PID.TID 0000.0001) %MON dynstat_eta_mean             =  -1.7837911136467E-16
(PID.TID 0000.0001) %MON dynstat_eta_sd               =   4.1156858946920E-01
(PID.TID 0000.0001) %MON dynstat_eta_del2             =   1.9406451783384E-02
(PID.TID 0000.0001) %MON dynstat_uvel_max             =   1.4243589251000E-01
(PID.TID 0000.0001) %MON dynstat_uvel_min             =  -1.9913990132918E-01
(PID.TID 0000.0001) %MON dynstat_uvel_mean            =  -2.3824286667761E-03
(PID.TID 0000.0001) %MON dynstat_uvel_sd              =   1.6801672688000E-02
(PID.TID 0000.0001) %MON dynstat_uvel_del2            =   5.5242548375615E-03
(PID.TID 0000.0001) %MON dynstat_vvel_max             =   1.7483126264925E-01
(PID.TID 0000.0001) %MON dynstat_vvel_min             =  -1.4739229750811E-01
(PID.TID 0000.0001) %MON dynstat_vvel_mean            =   1.6164918420441E-03
(PID.TID 0000.0001) %MON dynstat_vvel_sd              =   1.4770217590072E-02
(PID.TID 0000.0001) %MON dynstat_vvel_del2            =   5.1170486519614E-03
(PID.TID 0000.0001) %MON dynstat_wvel_max             =   3.0473165393918E-04
(PID.TID 0000.0001) %MON dynstat_wvel_min             =  -2.3865734651504E-04
(PID.TID 0000.0001) %MON dynstat_wvel_mean            =  -2.4224944779814E-22
(PID.TID 0000.0001) %MON dynstat_wvel_sd              =   2.9262451300100E-05
(PID.TID 0000.0001) %MON dynstat_wvel_del2            =   1.2050585053563E-05
(PID.TID 0000.0001) %MON dynstat_theta_max            =   2.9654565616574E+01
(PID.TID 0000.0001) %MON dynstat_theta_min            =  -1.9414884310116E+00
(PID.TID 0000.0001) %MON dynstat_theta_mean           =   3.5931893781545E+00
(PID.TID 0000.0001) %MON dynstat_theta_sd             =   4.3460982718774E+00
(PID.TID 0000.0001) %MON dynstat_theta_del2           =   1.3261746159929E-01
(PID.TID 0000.0001) %MON dynstat_salt_max             =   3.7379632325331E+01
(PID.TID 0000.0001) %MON dynstat_salt_min             =   2.9804333463836E+01
(PID.TID 0000.0001) %MON dynstat_salt_mean            =   3.4716156365162E+01
(PID.TID 0000.0001) %MON dynstat_salt_sd              =   2.9366133843129E-01
(PID.TID 0000.0001) %MON dynstat_salt_del2            =   2.4603127283255E-02
(PID.TID 0000.0001) %MON advcfl_uvel_max              =   2.9765810703110E-02
(PID.TID 0000.0001) %MON advcfl_vvel_max              =   1.6983455188203E-02
(PID.TID 0000.0001) %MON advcfl_wvel_max              =   1.3750142617798E-01
(PID.TID 0000.0001) %MON advcfl_W_hf_max              =   1.3667428865503E-01
(PID.TID 0000.0001) %MON pe_b_mean                    =   2.1675326346027E-04
(PID.TID 0000.0001) %MON ke_max                       =   1.9005995086372E-02
(PID.TID 0000.0001) %MON ke_mean                      =   2.2994451246595E-04
(PID.TID 0000.0001) %MON ke_vol                       =   1.3226782436723E+18
(PID.TID 0000.0001) %MON vort_r_min                   =  -9.4276352603298E-07
(PID.TID 0000.0001) %MON vort_r_max                   =   6.5669473381583E-07
(PID.TID 0000.0001) %MON vort_a_mean                  =  -2.5205768822151E-05
(PID.TID 0000.0001) %MON vort_a_sd                    =   7.3402935093245E-05
(PID.TID 0000.0001) %MON vort_p_mean                  =  -3.1758668837660E-05
(PID.TID 0000.0001) %MON vort_p_sd                    =   1.3126319498683E-04
(PID.TID 0000.0001) %MON surfExpan_theta_mean         =   1.1938478009312E-05
(PID.TID 0000.0001) %MON surfExpan_salt_mean          =   8.2460200976111E-07
(PID.TID 0000.0001) // =======================================================
(PID.TID 0000.0001) // End MONITOR dynamic field statistics
(PID.TID 0000.0001) // =======================================================
time,SST,SSS,fu,fv,Q,E-P,i0,i1,a,b =   2.0736E+06  5.1134E-01  3.4627E+01 -2.9273E-02 -4.5370E-02  2.5818E+02  0.0000E+00     1     2  3.0000E-01  7.0000E-01
time,fu0,fu1,fu =   2.0736E+06 -3.5633E-02 -1.4435E-02 -2.9273E-02  3.0000E-01  7.0000E-01
 cg2d: Sum(rhs),rhsMax =  -1.13298259662997E-13  8.99099018055222E+00
(PID.TID 0000.0001)                    cg2d_init_res =    5.70825636266707E-01
(PID.TID 0000.0001)                       cg2d_iters =    24
(PID.TID 0000.0001)                         cg2d_res =    8.02879712550916E-14
(PID.TID 0000.0001) // =======================================================
(PID.TID 0000.0001) // Begin MONITOR dynamic field statistics
(PID.TID 0000.0001) // =======================================================
(PID.TID 0000.0001) %MON time_tsnumber                =                    49
(PID.TID 0000.0001) %MON time_secondsf                =   2.1168000000000E+06
(PID.TID 0000.0001) %MON dynstat_eta_max              =   1.0898131550179E+00
(PID.TID 0000.0001) %MON dynstat_eta_min              =  -1.1725935144695E+00
(PID.TID 0000.0001) %MON dynstat_eta_mean             =   8.4946562217119E-17
(PID.TID 0000.0001) %MON dynstat_eta_sd               =   4.1220729392081E-01
(PID.TID 0000.0001) %MON dynstat_eta_del2             =   1.9438812987949E-02
(PID.TID 0000.0001) %MON dynstat_uvel_max             =   1.4134065977275E-01
(PID.TID 0000.0001) %MON dynstat_uvel_min             =  -1.9929452569344E-01
(PID.TID 0000.0001) %MON dynstat_uvel_mean            =  -2.2881408216926E-03
(PID.TID 0000.0001) %MON dynstat_uvel_sd              =   1.6766412585787E-02
(PID.TID 0000.0001) %MON dynstat_uvel_del2            =   5.4896023100860E-03
(PID.TID 0000.0001) %MON dynstat_vvel_max             =   1.7342956481529E-01
(PID.TID 0000.0001) %MON dynstat_vvel_min             =  -1.4584798889944E-01
(PID.TID 0000.0001) %MON dynstat_vvel_mean            =   1.2927115226833E-03
(PID.TID 0000.0001) %MON dynstat_vvel_sd              =   1.4692858147439E-02
(PID.TID 0000.0001) %MON dynstat_vvel_del2            =   5.1036022900913E-03
(PID.TID 0000.0001) %MON dynstat_wvel_max             =   3.0740730791463E-04
(PID.TID 0000.0001) %MON dynstat_wvel_min             =  -2.3854990911156E-04
(PID.TID 0000.0001) %MON dynstat_wvel_mean            =  -3.4662436896509E-22
(PID.TID 0000.0001) %MON dynstat_wvel_sd              =   2.8979464614443E-05
(PID.TID 0000.0001) %MON dynstat_wvel_del2            =   1.1961392245923E-05
(PID.TID 0000.0001) %MON dynstat_theta_max            =   2.9664417204745E+01
(PID.TID 0000.0001) %MON dynstat_theta_min            =  -1.9438856076458E+00
(PID.TID 0000.0001) %MON dynstat_theta_mean           =   3.5931097956198E+00
(PID.TID 0000.0001) %MON dynstat_theta_sd             =   4.3457011390418E+00
(PID.TID 0000.0001) %MON dynstat_theta_del2           =   1.3249676403327E-01
(PID.TID 0000.0001) %MON dynstat_salt_max             =   3.7380739298233E+01
(PID.TID 0000.0001) %MON dynstat_salt_min             =   2.9803795676130E+01
(PID.TID 0000.0001) %MON dynstat_salt_mean            =   3.4716152283676E+01
(PID.TID 0000.0001) %MON dynstat_salt_sd              =   2.9363748501213E-01
(PID.TID 0000.0001) %MON dynstat_salt_del2            =   2.4555513859288E-02
(PID.TID 0000.0001) %MON advcfl_uvel_max              =   2.9665400124058E-02
(PID.TID 0000.0001) %MON advcfl_vvel_max              =   1.6847291483898E-02
(PID.TID 0000.0001) %MON advcfl_wvel_max              =   1.3867244484734E-01
(PID.TID 0000.0001) %MON advcfl_W_hf_max              =   1.3689139550785E-01
(PID.TID 0000.0001) %MON pe_b_mean                    =   2.1742653493841E-04
(PID.TID 0000.0001) %MON ke_max                       =   1.9056467243779E-02
(PID.TID 0000.0001) %MON ke_mean                      =   2.2776057492946E-04
(PID.TID 0000.0001) %MON ke_vol                       =   1.3226782436723E+18
(PID.TID 0000.0001) %MON vort_r_min                   =  -9.6151736307657E-07
(PID.TID 0000.0001) %MON vort_r_max                   =   6.4410938112373E-07
(PID.TID 0000.0001) %MON vort_a_mean                  =  -2.5205768788933E-05
(PID.TID 0000.0001) %MON vort_a_sd                    =   7.3402953345685E-05
(PID.TID 0000.0001) %MON vort_p_mean                  =  -3.1758668795806E-05
(PID.TID 0000.0001) %MON vort_p_sd                    =   1.3126322893275E-04
(PID.TID 0000.0001) %MON surfExpan_theta_mean         =   1.1520165230108E-05
(PID.TID 0000.0001) %MON surfExpan_salt_mean          =   5.3401288749999E-07
(PID.TID 0000.0001) // =======================================================
(PID.TID 0000.0001) // End MONITOR dynamic field statistics
(PID.TID 0000.0001) // =======================================================
time,SST,SSS,fu,fv,Q,E-P,i0,i1,a,b =   2.1168E+06  4.8650E-01  3.4622E+01 -2.8920E-02 -4.4710E-02  2.5776E+02  0.0000E+00     1     2  3.1667E-01  6.8333E-01
time,fu0,fu1,fu =   2.1168E+06 -3.5633E-02 -1.4435E-02 -2.8920E-02  3.1667E-01  6.8333E-01
 cg2d: Sum(rhs),rhsMax =   4.48252546192407E-15  8.89940299759266E+00
(PID.TID 0000.0001)                    cg2d_init_res =    5.61903487460512E-01
(PID.TID 0000.0001)                       cg2d_iters =    24
(PID.TID 0000.0001)                         cg2d_res =    7.77826948737457E-14
(PID.TID 0000.0001) // =======================================================
(PID.TID 0000.0001) // Begin MONITOR dynamic field statistics
(PID.TID 0000.0001) // =======================================================
(PID.TID 0000.0001) %MON time_tsnumber                =                    50
(PID.TID 0000.0001) %MON time_secondsf                =   2.1600000000000E+06
(PID.TID 0000.0001) %MON dynstat_eta_max              =   1.0770007322628E+00
(PID.TID 0000.0001) %MON dynstat_eta_min              =  -1.1620164758146E+00
(PID.TID 0000.0001) %MON dynstat_eta_mean             =  -7.7798058924408E-17
(PID.TID 0000.0001) %MON dynstat_eta_sd               =   4.1264390078086E-01
(PID.TID 0000.0001) %MON dynstat_eta_del2             =   1.9452229084489E-02
(PID.TID 0000.0001) %MON dynstat_uvel_max             =   1.4042026471225E-01
(PID.TID 0000.0001) %MON dynstat_uvel_min             =  -1.9972327338372E-01
(PID.TID 0000.0001) %MON dynstat_uvel_mean            =  -2.1834097929126E-03
(PID.TID 0000.0001) %MON dynstat_uvel_sd              =   1.6746396810326E-02
(PID.TID 0000.0001) %MON dynstat_uvel_del2            =   5.4566295105038E-03
(PID.TID 0000.0001) %MON dynstat_vvel_max             =   1.7139647785860E-01
(PID.TID 0000.0001) %MON dynstat_vvel_min             =  -1.4380563916707E-01
(PID.TID 0000.0001) %MON dynstat_vvel_mean            =   9.6659390969735E-04
(PID.TID 0000.0001) %MON dynstat_vvel_sd              =   1.4648533898495E-02
(PID.TID 0000.0001) %MON dynstat_vvel_del2            =   5.0892581946076E-03
(PID.TID 0000.0001) %MON dynstat_wvel_max             =   3.0956277480635E-04
(PID.TID 0000.0001) %MON dynstat_wvel_min             =  -2.3696326044874E-04
(PID.TID 0000.0001) %MON dynstat_wvel_mean            =  -3.8997500761878E-23
(PID.TID 0000.0001) %MON dynstat_wvel_sd              =   2.8703440982859E-05
(PID.TID 0000.0001) %MON dynstat_wvel_del2            =   1.1867240266708E-05
(PID.TID 0000.0001) %MON dynstat_theta_max            =   2.9672787444615E+01
(PID.TID 0000.0001) %MON dynstat_theta_min            =  -1.9460975040482E+00
(PID.TID 0000.0001) %MON dynstat_theta_mean           =   3.5930352179205E+00
(PID.TID 0000.0001) %MON dynstat_theta_sd             =   4.3453038200472E+00
(PID.TID 0000.0001) %MON dynstat_theta_del2           =   1.3236624982457E-01
(PID.TID 0000.0001) %MON dynstat_salt_max             =   3.7381877501137E+01
(PID.TID 0000.0001) %MON dynstat_salt_min             =   2.9803208279501E+01
(PID.TID 0000.0001) %MON dynstat_salt_mean            =   3.4716151280887E+01
(PID.TID 0000.0001) %MON dynstat_salt_sd              =   2.9362141164200E-01
(PID.TID 0000.0001) %MON dynstat_salt_del2            =   2.4507569090154E-02
(PID.TID 0000.0001) %MON advcfl_uvel_max              =   3.0094636532857E-02
(PID.TID 0000.0001) %MON advcfl_vvel_max              =   1.6649793389453E-02
(PID.TID 0000.0001) %MON advcfl_wvel_max              =   1.4169799749897E-01
(PID.TID 0000.0001) %MON advcfl_W_hf_max              =   1.3512915304459E-01
(PID.TID 0000.0001) %MON pe_b_mean                    =   2.1788737196210E-04
(PID.TID 0000.0001) %MON ke_max                       =   1.9084532189264E-02
(PID.TID 0000.0001) %MON ke_mean                      =   2.2632841809131E-04
(PID.TID 0000.0001) %MON ke_vol                       =   1.3226782436723E+18
(PID.TID 0000.0001) %MON vort_r_min                   =  -9.7933931773415E-07
(PID.TID 0000.0001) %MON vort_r_max                   =   6.2823765817723E-07
(PID.TID 0000.0001) %MON vort_a_mean                  =  -2.5205768758518E-05
(PID.TID 0000.0001) %MON vort_a_sd                    =   7.3402973135423E-05
(PID.TID 0000.0001) %MON vort_p_mean                  =  -3.1758668757484E-05
(PID.TID 0000.0001) %MON vort_p_sd                    =   1.3126325882688E-04
(PID.TID 0000.0001) %MON surfExpan_theta_mean         =   1.1086216006864E-05
(PID.TID 0000.0001) %MON surfExpan_salt_mean          =   2.5426776430266E-07
(PID.TID 0000.0001) // =======================================================
(PID.TID 0000.0001) // End MONITOR dynamic field statistics
(PID.TID 0000.0001) // =======================================================
time,SST,SSS,fu,fv,Q,E-P,i0,i1,a,b =   2.1600E+06  4.6166E-01  3.4617E+01 -2.8567E-02 -4.4050E-02  2.5734E+02  0.0000E+00     1     2  3.3333E-01  6.6667E-01
time,fu0,fu1,fu =   2.1600E+06 -3.5633E-02 -1.4435E-02 -2.8567E-02  3.3333E-01  6.6667E-01
 cg2d: Sum(rhs),rhsMax =  -3.44266282148453E-13  8.62674628009136E+00
(PID.TID 0000.0001)                    cg2d_init_res =    5.66984047603032E-01
(PID.TID 0000.0001)                       cg2d_iters =    24
(PID.TID 0000.0001)                         cg2d_res =    6.33969557685506E-14
(PID.TID 0000.0001) // =======================================================
(PID.TID 0000.0001) // Begin MONITOR dynamic field statistics
(PID.TID 0000.0001) // =======================================================
(PID.TID 0000.0001) %MON time_tsnumber                =                    51
(PID.TID 0000.0001) %MON time_secondsf                =   2.2032000000000E+06
(PID.TID 0000.0001) %MON dynstat_eta_max              =   1.0424026098541E+00
(PID.TID 0000.0001) %MON dynstat_eta_min              =  -1.1458617795786E+00
(PID.TID 0000.0001) %MON dynstat_eta_mean             =  -1.0352735395372E-16
(PID.TID 0000.0001) %MON dynstat_eta_sd               =   4.1291307937940E-01
(PID.TID 0000.0001) %MON dynstat_eta_del2             =   1.9387617015145E-02
(PID.TID 0000.0001) %MON dynstat_uvel_max             =   1.3765684904601E-01
(PID.TID 0000.0001) %MON dynstat_uvel_min             =  -1.9989897784537E-01
(PID.TID 0000.0001) %MON dynstat_uvel_mean            =  -2.0686938631633E-03
(PID.TID 0000.0001) %MON dynstat_uvel_sd              =   1.6741849221389E-02
(PID.TID 0000.0001) %MON dynstat_uvel_del2            =   5.4264221093931E-03
(PID.TID 0000.0001) %MON dynstat_vvel_max             =   1.6880503666806E-01
(PID.TID 0000.0001) %MON dynstat_vvel_min             =  -1.4138741507886E-01
(PID.TID 0000.0001) %MON dynstat_vvel_mean            =   6.4230352433527E-04
(PID.TID 0000.0001) %MON dynstat_vvel_sd              =   1.4637104814019E-02
(PID.TID 0000.0001) %MON dynstat_vvel_del2            =   5.0719160138750E-03
(PID.TID 0000.0001) %MON dynstat_wvel_max             =   3.1121533546500E-04
(PID.TID 0000.0001) %MON dynstat_wvel_min             =  -2.3393519679916E-04
(PID.TID 0000.0001) %MON dynstat_wvel_mean            =   7.5659262316688E-22
(PID.TID 0000.0001) %MON dynstat_wvel_sd              =   2.8442609483058E-05
(PID.TID 0000.0001) %MON dynstat_wvel_del2            =   1.1765907145585E-05
(PID.TID 0000.0001) %MON dynstat_theta_max            =   2.9679741862316E+01
(PID.TID 0000.0001) %MON dynstat_theta_min            =  -1.9481357225733E+00
(PID.TID 0000.0001) %MON dynstat_theta_mean           =   3.5929651893883E+00
(PID.TID 0000.0001) %MON dynstat_theta_sd             =   4.3449140853029E+00
(PID.TID 0000.0001) %MON dynstat_theta_del2           =   1.3223624883912E-01
(PID.TID 0000.0001) %MON dynstat_salt_max             =   3.7382968851789E+01
(PID.TID 0000.0001) %MON dynstat_salt_min             =   2.9802575832807E+01
(PID.TID 0000.0001) %MON dynstat_salt_mean            =   3.4716153007737E+01
(PID.TID 0000.0001) %MON dynstat_salt_sd              =   2.9361320257707E-01
(PID.TID 0000.0001) %MON dynstat_salt_del2            =   2.4457710053767E-02
(PID.TID 0000.0001) %MON advcfl_uvel_max              =   3.0493082390278E-02
(PID.TID 0000.0001) %MON advcfl_vvel_max              =   1.6398055658652E-02
(PID.TID 0000.0001) %MON advcfl_wvel_max              =   1.6220527352512E-01
(PID.TID 0000.0001) %MON advcfl_W_hf_max              =   1.3133201840038E-01
(PID.TID 0000.0001) %MON pe_b_mean                    =   2.1817173214283E-04
(PID.TID 0000.0001) %MON ke_max                       =   1.9090293400219E-02
(PID.TID 0000.0001) %MON ke_mean                      =   2.2565312087535E-04
(PID.TID 0000.0001) %MON ke_vol                       =   1.3226782436723E+18
(PID.TID 0000.0001) %MON vort_r_min                   =  -9.9616247593625E-07
(PID.TID 0000.0001) %MON vort_r_max                   =   6.3509427133691E-07
(PID.TID 0000.0001) %MON vort_a_mean                  =  -2.5205768730553E-05
(PID.TID 0000.0001) %MON vort_a_sd                    =   7.3402994507564E-05
(PID.TID 0000.0001) %MON vort_p_mean                  =  -3.1758668722249E-05
(PID.TID 0000.0001) %MON vort_p_sd                    =   1.3126328429432E-04
(PID.TID 0000.0001) %MON surfExpan_theta_mean         =   1.0670948385937E-05
(PID.TID 0000.0001) %MON surfExpan_salt_mean          =  -1.9664692324741E-09
(PID.TID 0000.0001) // =======================================================
(PID.TID 0000.0001) // End MONITOR dynamic field statistics
(PID.TID 0000.0001) // =======================================================
time,SST,SSS,fu,fv,Q,E-P,i0,i1,a,b =   2.2032E+06  4.3683E-01  3.4612E+01 -2.8214E-02 -4.3389E-02  2.5692E+02  0.0000E+00     1     2  3.5000E-01  6.5000E-01
time,fu0,fu1,fu =   2.2032E+06 -3.5633E-02 -1.4435E-02 -2.8214E-02  3.5000E-01  6.5000E-01
 cg2d: Sum(rhs),rhsMax =   3.18217674433185E-14  8.17661278128083E+00
(PID.TID 0000.0001)                    cg2d_init_res =    5.88477144854866E-01
(PID.TID 0000.0001)                       cg2d_iters =    24
(PID.TID 0000.0001)                         cg2d_res =    8.73178754727112E-14
(PID.TID 0000.0001) // =======================================================
(PID.TID 0000.0001) // Begin MONITOR dynamic field statistics
(PID.TID 0000.0001) // =======================================================
(PID.TID 0000.0001) %MON time_tsnumber                =                    52
(PID.TID 0000.0001) %MON time_secondsf                =   2.2464000000000E+06
(PID.TID 0000.0001) %MON dynstat_eta_max              =   9.8650484411344E-01
(PID.TID 0000.0001) %MON dynstat_eta_min              =  -1.1257341420600E+00
(PID.TID 0000.0001) %MON dynstat_eta_mean             =   1.1316977265772E-16
(PID.TID 0000.0001) %MON dynstat_eta_sd               =   4.1306137938679E-01
(PID.TID 0000.0001) %MON dynstat_eta_del2             =   1.9329302445594E-02
(PID.TID 0000.0001) %MON dynstat_uvel_max             =   1.3501294408180E-01
(PID.TID 0000.0001) %MON dynstat_uvel_min             =  -1.9982317629429E-01
(PID.TID 0000.0001) %MON dynstat_uvel_mean            =  -1.9448918217258E-03
(PID.TID 0000.0001) %MON dynstat_uvel_sd              =   1.6753785080992E-02
(PID.TID 0000.0001) %MON dynstat_uvel_del2            =   5.3967458669293E-03
(PID.TID 0000.0001) %MON dynstat_vvel_max             =   1.6573544604730E-01
(PID.TID 0000.0001) %MON dynstat_vvel_min             =  -1.4224882637112E-01
(PID.TID 0000.0001) %MON dynstat_vvel_mean            =   3.2376142934648E-04
(PID.TID 0000.0001) %MON dynstat_vvel_sd              =   1.4655784932253E-02
(PID.TID 0000.0001) %MON dynstat_vvel_del2            =   5.0530418085476E-03
(PID.TID 0000.0001) %MON dynstat_wvel_max             =   3.1238530478217E-04
(PID.TID 0000.0001) %MON dynstat_wvel_min             =  -2.3573098622051E-04
(PID.TID 0000.0001) %MON dynstat_wvel_mean            =   1.3025188325786E-22
(PID.TID 0000.0001) %MON dynstat_wvel_sd              =   2.8202207258054E-05
(PID.TID 0000.0001) %MON dynstat_wvel_del2            =   1.1661241156520E-05
(PID.TID 0000.0001) %MON dynstat_theta_max            =   2.9685365595653E+01
(PID.TID 0000.0001) %MON dynstat_theta_min            =  -1.9500114487975E+00
(PID.TID 0000.0001) %MON dynstat_theta_mean           =   3.5928989993309E+00
(PID.TID 0000.0001) %MON dynstat_theta_sd             =   4.3445381362362E+00
(PID.TID 0000.0001) %MON dynstat_theta_del2           =   1.3209890463347E-01
(PID.TID 0000.0001) %MON dynstat_salt_max             =   3.7383994638548E+01
(PID.TID 0000.0001) %MON dynstat_salt_min             =   2.9801901309423E+01
(PID.TID 0000.0001) %MON dynstat_salt_mean            =   3.4716157004259E+01
(PID.TID 0000.0001) %MON dynstat_salt_sd              =   2.9361243215001E-01
(PID.TID 0000.0001) %MON dynstat_salt_del2            =   2.4406812067263E-02
(PID.TID 0000.0001) %MON advcfl_uvel_max              =   3.1106240800820E-02
(PID.TID 0000.0001) %MON advcfl_vvel_max              =   1.6099869545003E-02
(PID.TID 0000.0001) %MON advcfl_wvel_max              =   1.7753662012863E-01
(PID.TID 0000.0001) %MON advcfl_W_hf_max              =   1.2615938528043E-01
(PID.TID 0000.0001) %MON pe_b_mean                    =   2.1832847544461E-04
(PID.TID 0000.0001) %MON ke_max                       =   1.9192043321255E-02
(PID.TID 0000.0001) %MON ke_mean                      =   2.2571651612484E-04
(PID.TID 0000.0001) %MON ke_vol                       =   1.3226782436723E+18
(PID.TID 0000.0001) %MON vort_r_min                   =  -1.0119289670086E-06
(PID.TID 0000.0001) %MON vort_r_max                   =   6.4789940804299E-07
(PID.TID 0000.0001) %MON vort_a_mean                  =  -2.5205768704875E-05
(PID.TID 0000.0001) %MON vort_a_sd                    =   7.3403017402641E-05
(PID.TID 0000.0001) %MON vort_p_mean                  =  -3.1758668689895E-05
(PID.TID 0000.0001) %MON vort_p_sd                    =   1.3126330489296E-04
(PID.TID 0000.0001) %MON surfExpan_theta_mean         =   1.0299413286540E-05
(PID.TID 0000.0001) %MON surfExpan_salt_mean          =  -2.2428876466934E-07
(PID.TID 0000.0001) // =======================================================
(PID.TID 0000.0001) // End MONITOR dynamic field statistics
(PID.TID 0000.0001) // =======================================================
time,SST,SSS,fu,fv,Q,E-P,i0,i1,a,b =   2.2464E+06  4.1199E-01  3.4607E+01 -2.7860E-02 -4.2729E-02  2.5650E+02  0.0000E+00     1     2  3.6667E-01  6.3333E-01
time,fu0,fu1,fu =   2.2464E+06 -3.5633E-02 -1.4435E-02 -2.7860E-02  3.6667E-01  6.3333E-01
 cg2d: Sum(rhs),rhsMax =   1.46035961101632E-13  7.98902779582627E+00
(PID.TID 0000.0001)                    cg2d_init_res =    5.96107276654930E-01
(PID.TID 0000.0001)                       cg2d_iters =    24
(PID.TID 0000.0001)                         cg2d_res =    9.73020417688223E-14
(PID.TID 0000.0001) // =======================================================
(PID.TID 0000.0001) // Begin MONITOR dynamic field statistics
(PID.TID 0000.0001) // =======================================================
(PID.TID 0000.0001) %MON time_tsnumber                =                    53
(PID.TID 0000.0001) %MON time_secondsf                =   2.2896000000000E+06
(PID.TID 0000.0001) %MON dynstat_eta_max              =   9.1039405858136E-01
(PID.TID 0000.0001) %MON dynstat_eta_min              =  -1.1240028701334E+00
(PID.TID 0000.0001) %MON dynstat_eta_mean             =   7.6739962492716E-17
(PID.TID 0000.0001) %MON dynstat_eta_sd               =   4.1314530106299E-01
(PID.TID 0000.0001) %MON dynstat_eta_del2             =   1.9265481009092E-02
(PID.TID 0000.0001) %MON dynstat_uvel_max             =   1.3775403227942E-01
(PID.TID 0000.0001) %MON dynstat_uvel_min             =  -1.9949852419534E-01
(PID.TID 0000.0001) %MON dynstat_uvel_mean            =  -1.8132462378335E-03
(PID.TID 0000.0001) %MON dynstat_uvel_sd              =   1.6783783890958E-02
(PID.TID 0000.0001) %MON dynstat_uvel_del2            =   5.3676690149219E-03
(PID.TID 0000.0001) %MON dynstat_vvel_max             =   1.6227133090879E-01
(PID.TID 0000.0001) %MON dynstat_vvel_min             =  -1.4264535333460E-01
(PID.TID 0000.0001) %MON dynstat_vvel_mean            =   1.4601940601994E-05
(PID.TID 0000.0001) %MON dynstat_vvel_sd              =   1.4699429463942E-02
(PID.TID 0000.0001) %MON dynstat_vvel_del2            =   5.0301992693917E-03
(PID.TID 0000.0001) %MON dynstat_wvel_max             =   3.1309788571276E-04
(PID.TID 0000.0001) %MON dynstat_wvel_min             =  -2.3794150713879E-04
(PID.TID 0000.0001) %MON dynstat_wvel_mean            =  -4.2703639353635E-23
(PID.TID 0000.0001) %MON dynstat_wvel_sd              =   2.7983795864613E-05
(PID.TID 0000.0001) %MON dynstat_wvel_del2            =   1.1550989450824E-05
(PID.TID 0000.0001) %MON dynstat_theta_max            =   2.9689754158590E+01
(PID.TID 0000.0001) %MON dynstat_theta_min            =  -1.9517345922522E+00
(PID.TID 0000.0001) %MON dynstat_theta_mean           =   3.5928357261710E+00
(PID.TID 0000.0001) %MON dynstat_theta_sd             =   4.3441813259400E+00
(PID.TID 0000.0001) %MON dynstat_theta_del2           =   1.3198603102454E-01
(PID.TID 0000.0001) %MON dynstat_salt_max             =   3.7384941061980E+01
(PID.TID 0000.0001) %MON dynstat_salt_min             =   2.9801185972402E+01
(PID.TID 0000.0001) %MON dynstat_salt_mean            =   3.4716162734422E+01
(PID.TID 0000.0001) %MON dynstat_salt_sd              =   2.9361900127034E-01
(PID.TID 0000.0001) %MON dynstat_salt_del2            =   2.4355503681199E-02
(PID.TID 0000.0001) %MON advcfl_uvel_max              =   3.1688764822515E-02
(PID.TID 0000.0001) %MON advcfl_vvel_max              =   1.5763358538160E-02
(PID.TID 0000.0001) %MON advcfl_wvel_max              =   1.8745279455865E-01
(PID.TID 0000.0001) %MON advcfl_W_hf_max              =   1.3274389357666E-01
(PID.TID 0000.0001) %MON pe_b_mean                    =   2.1841720004501E-04
(PID.TID 0000.0001) %MON ke_max                       =   1.9439185490341E-02
(PID.TID 0000.0001) %MON ke_mean                      =   2.2647704903204E-04
(PID.TID 0000.0001) %MON ke_vol                       =   1.3226782436723E+18
(PID.TID 0000.0001) %MON vort_r_min                   =  -1.0265907730090E-06
(PID.TID 0000.0001) %MON vort_r_max                   =   6.5962296386578E-07
(PID.TID 0000.0001) %MON vort_a_mean                  =  -2.5205768680825E-05
(PID.TID 0000.0001) %MON vort_a_sd                    =   7.3403041680002E-05
(PID.TID 0000.0001) %MON vort_p_mean                  =  -3.1758668659593E-05
(PID.TID 0000.0001) %MON vort_p_sd                    =   1.3126332018552E-04
(PID.TID 0000.0001) %MON surfExpan_theta_mean         =   9.9981790014698E-06
(PID.TID 0000.0001) %MON surfExpan_salt_mean          =  -4.0364570446712E-07
(PID.TID 0000.0001) // =======================================================
(PID.TID 0000.0001) // End MONITOR dynamic field statistics
(PID.TID 0000.0001) // =======================================================
time,SST,SSS,fu,fv,Q,E-P,i0,i1,a,b =   2.2896E+06  3.8715E-01  3.4602E+01 -2.7507E-02 -4.2069E-02  2.5608E+02  0.0000E+00     1     2  3.8333E-01  6.1667E-01
time,fu0,fu1,fu =   2.2896E+06 -3.5633E-02 -1.4435E-02 -2.7507E-02  3.8333E-01  6.1667E-01
 cg2d: Sum(rhs),rhsMax =   2.58015830922886E-13  8.10539979362664E+00
(PID.TID 0000.0001)                    cg2d_init_res =    5.84267452468241E-01
(PID.TID 0000.0001)                       cg2d_iters =    25
(PID.TID 0000.0001)                         cg2d_res =    2.50075379902872E-14
(PID.TID 0000.0001) // =======================================================
(PID.TID 0000.0001) // Begin MONITOR dynamic field statistics
(PID.TID 0000.0001) // =======================================================
(PID.TID 0000.0001) %MON time_tsnumber                =                    54
(PID.TID 0000.0001) %MON time_secondsf                =   2.3328000000000E+06
(PID.TID 0000.0001) %MON dynstat_eta_max              =   9.1594062274861E-01
(PID.TID 0000.0001) %MON dynstat_eta_min              =  -1.1671530277345E+00
(PID.TID 0000.0001) %MON dynstat_eta_mean             =  -7.9133493909176E-17
(PID.TID 0000.0001) %MON dynstat_eta_sd               =   4.1322721055606E-01
(PID.TID 0000.0001) %MON dynstat_eta_del2             =   1.9188985421653E-02
(PID.TID 0000.0001) %MON dynstat_uvel_max             =   1.4216080613703E-01
(PID.TID 0000.0001) %MON dynstat_uvel_min             =  -1.9892897949303E-01
(PID.TID 0000.0001) %MON dynstat_uvel_mean            =  -1.6752481917535E-03
(PID.TID 0000.0001) %MON dynstat_uvel_sd              =   1.6833691188406E-02
(PID.TID 0000.0001) %MON dynstat_uvel_del2            =   5.3412047868310E-03
(PID.TID 0000.0001) %MON dynstat_vvel_max             =   1.6239621948834E-01
(PID.TID 0000.0001) %MON dynstat_vvel_min             =  -1.4258600082065E-01
(PID.TID 0000.0001) %MON dynstat_vvel_mean            =  -2.8186349854059E-04
(PID.TID 0000.0001) %MON dynstat_vvel_sd              =   1.4761167213638E-02
(PID.TID 0000.0001) %MON dynstat_vvel_del2            =   5.0025547399441E-03
(PID.TID 0000.0001) %MON dynstat_wvel_max             =   3.1338444907673E-04
(PID.TID 0000.0001) %MON dynstat_wvel_min             =  -2.3965875964490E-04
(PID.TID 0000.0001) %MON dynstat_wvel_mean            =  -1.1732331811968E-22
(PID.TID 0000.0001) %MON dynstat_wvel_sd              =   2.7785304453994E-05
(PID.TID 0000.0001) %MON dynstat_wvel_del2            =   1.1432365671245E-05
(PID.TID 0000.0001) %MON dynstat_theta_max            =   2.9693007164212E+01
(PID.TID 0000.0001) %MON dynstat_theta_min            =  -1.9533129747369E+00
(PID.TID 0000.0001) %MON dynstat_theta_mean           =   3.5927742781966E+00
(PID.TID 0000.0001) %MON dynstat_theta_sd             =   4.3438459811248E+00
(PID.TID 0000.0001) %MON dynstat_theta_del2           =   1.3186311435465E-01
(PID.TID 0000.0001) %MON dynstat_salt_max             =   3.7385799318170E+01
(PID.TID 0000.0001) %MON dynstat_salt_min             =   2.9800429325401E+01
(PID.TID 0000.0001) %MON dynstat_salt_mean            =   3.4716169606147E+01
(PID.TID 0000.0001) %MON dynstat_salt_sd              =   2.9363224060212E-01
(PID.TID 0000.0001) %MON dynstat_salt_del2            =   2.4307249686283E-02
(PID.TID 0000.0001) %MON advcfl_uvel_max              =   3.2231077859990E-02
(PID.TID 0000.0001) %MON advcfl_vvel_max              =   1.5775490462178E-02
(PID.TID 0000.0001) %MON advcfl_wvel_max              =   1.9190206728337E-01
(PID.TID 0000.0001) %MON advcfl_W_hf_max              =   1.4178519680052E-01
(PID.TID 0000.0001) %MON pe_b_mean                    =   2.1850381468422E-04
(PID.TID 0000.0001) %MON ke_max                       =   1.9647923767906E-02
(PID.TID 0000.0001) %MON ke_mean                      =   2.2787269429376E-04
(PID.TID 0000.0001) %MON ke_vol                       =   1.3226782436723E+18
(PID.TID 0000.0001) %MON vort_r_min                   =  -1.0401092439611E-06
(PID.TID 0000.0001) %MON vort_r_max                   =   6.7020947520875E-07
(PID.TID 0000.0001) %MON vort_a_mean                  =  -2.5205768657829E-05
(PID.TID 0000.0001) %MON vort_a_sd                    =   7.3403067129189E-05
(PID.TID 0000.0001) %MON vort_p_mean                  =  -3.1758668630619E-05
(PID.TID 0000.0001) %MON vort_p_sd                    =   1.3126332977027E-04
(PID.TID 0000.0001) %MON surfExpan_theta_mean         =   9.7819344942919E-06
(PID.TID 0000.0001) %MON surfExpan_salt_mean          =  -5.3450672672015E-07
(PID.TID 0000.0001) // =======================================================
(PID.TID 0000.0001) // End MONITOR dynamic field statistics
(PID.TID 0000.0001) // =======================================================
time,SST,SSS,fu,fv,Q,E-P,i0,i1,a,b =   2.3328E+06  3.6231E-01  3.4597E+01 -2.7154E-02 -4.1408E-02  2.5565E+02  0.0000E+00     1     2  4.0000E-01  6.0000E-01
time,fu0,fu1,fu =   2.3328E+06 -3.5633E-02 -1.4435E-02 -2.7154E-02  4.0000E-01  6.0000E-01
 cg2d: Sum(rhs),rhsMax =   4.33916791386935E-13  8.20893301692313E+00
(PID.TID 0000.0001)                    cg2d_init_res =    5.74919399128879E-01
(PID.TID 0000.0001)                       cg2d_iters =    25
(PID.TID 0000.0001)                         cg2d_res =    2.53334369822376E-14
(PID.TID 0000.0001) // =======================================================
(PID.TID 0000.0001) // Begin MONITOR dynamic field statistics
(PID.TID 0000.0001) // =======================================================
(PID.TID 0000.0001) %MON time_tsnumber                =                    55
(PID.TID 0000.0001) %MON time_secondsf                =   2.3760000000000E+06
(PID.TID 0000.0001) %MON dynstat_eta_max              =   9.2848443260704E-01
(PID.TID 0000.0001) %MON dynstat_eta_min              =  -1.2045150046177E+00
(PID.TID 0000.0001) %MON dynstat_eta_mean             =  -1.0166086182951E-18
(PID.TID 0000.0001) %MON dynstat_eta_sd               =   4.1336961494535E-01
(PID.TID 0000.0001) %MON dynstat_eta_del2             =   1.9091587012740E-02
(PID.TID 0000.0001) %MON dynstat_uvel_max             =   1.5077056032786E-01
(PID.TID 0000.0001) %MON dynstat_uvel_min             =  -1.9811985504475E-01
(PID.TID 0000.0001) %MON dynstat_uvel_mean            =  -1.5325444600316E-03
(PID.TID 0000.0001) %MON dynstat_uvel_sd              =   1.6905274132656E-02
(PID.TID 0000.0001) %MON dynstat_uvel_del2            =   5.3153332998617E-03
(PID.TID 0000.0001) %MON dynstat_vvel_max             =   1.6338441220541E-01
(PID.TID 0000.0001) %MON dynstat_vvel_min             =  -1.4209152982795E-01
(PID.TID 0000.0001) %MON dynstat_vvel_mean            =  -5.6267419594642E-04
(PID.TID 0000.0001) %MON dynstat_vvel_sd              =   1.4833258777109E-02
(PID.TID 0000.0001) %MON dynstat_vvel_del2            =   4.9721073874763E-03
(PID.TID 0000.0001) %MON dynstat_wvel_max             =   3.1470706632639E-04
(PID.TID 0000.0001) %MON dynstat_wvel_min             =  -2.4070177705369E-04
(PID.TID 0000.0001) %MON dynstat_wvel_mean            =  -2.6499005517681E-22
(PID.TID 0000.0001) %MON dynstat_wvel_sd              =   2.7601749780091E-05
(PID.TID 0000.0001) %MON dynstat_wvel_del2            =   1.1309348425608E-05
(PID.TID 0000.0001) %MON dynstat_theta_max            =   2.9716306112730E+01
(PID.TID 0000.0001) %MON dynstat_theta_min            =  -1.9547517611187E+00
(PID.TID 0000.0001) %MON dynstat_theta_mean           =   3.5927134542669E+00
(PID.TID 0000.0001) %MON dynstat_theta_sd             =   4.3435331576529E+00
(PID.TID 0000.0001) %MON dynstat_theta_del2           =   1.3176875080068E-01
(PID.TID 0000.0001) %MON dynstat_salt_max             =   3.7386565442068E+01
(PID.TID 0000.0001) %MON dynstat_salt_min             =   2.9799629404332E+01
(PID.TID 0000.0001) %MON dynstat_salt_mean            =   3.4716177016716E+01
(PID.TID 0000.0001) %MON dynstat_salt_sd              =   2.9365153647845E-01
(PID.TID 0000.0001) %MON dynstat_salt_del2            =   2.4259342515716E-02
(PID.TID 0000.0001) %MON advcfl_uvel_max              =   3.2724295661705E-02
(PID.TID 0000.0001) %MON advcfl_vvel_max              =   1.5871485460288E-02
(PID.TID 0000.0001) %MON advcfl_wvel_max              =   1.9100887210249E-01
(PID.TID 0000.0001) %MON advcfl_W_hf_max              =   1.5808319204505E-01
(PID.TID 0000.0001) %MON pe_b_mean                    =   2.1865444011739E-04
(PID.TID 0000.0001) %MON ke_max                       =   1.9816498350085E-02
(PID.TID 0000.0001) %MON ke_mean                      =   2.2982625217672E-04
(PID.TID 0000.0001) %MON ke_vol                       =   1.3226782436723E+18
(PID.TID 0000.0001) %MON vort_r_min                   =  -1.0524526557604E-06
(PID.TID 0000.0001) %MON vort_r_max                   =   6.7961218077450E-07
(PID.TID 0000.0001) %MON vort_a_mean                  =  -2.5205768635291E-05
(PID.TID 0000.0001) %MON vort_a_sd                    =   7.3403093489451E-05
(PID.TID 0000.0001) %MON vort_p_mean                  =  -3.1758668602221E-05
(PID.TID 0000.0001) %MON vort_p_sd                    =   1.3126333333899E-04
(PID.TID 0000.0001) %MON surfExpan_theta_mean         =   9.6622107145876E-06
(PID.TID 0000.0001) %MON surfExpan_salt_mean          =  -6.1384907015390E-07
(PID.TID 0000.0001) // =======================================================
(PID.TID 0000.0001) // End MONITOR dynamic field statistics
(PID.TID 0000.0001) // =======================================================
time,SST,SSS,fu,fv,Q,E-P,i0,i1,a,b =   2.3760E+06  3.3747E-01  3.4592E+01 -2.6800E-02 -4.0748E-02  2.5523E+02  0.0000E+00     1     2  4.1667E-01  5.8333E-01
time,fu0,fu1,fu =   2.3760E+06 -3.5633E-02 -1.4435E-02 -2.6800E-02  4.1667E-01  5.8333E-01
 cg2d: Sum(rhs),rhsMax =  -2.00603422761958E-13  8.29950275092562E+00
(PID.TID 0000.0001)                    cg2d_init_res =    5.66184526851837E-01
(PID.TID 0000.0001)                       cg2d_iters =    25
(PID.TID 0000.0001)                         cg2d_res =    2.50401667185351E-14
(PID.TID 0000.0001) // =======================================================
(PID.TID 0000.0001) // Begin MONITOR dynamic field statistics
(PID.TID 0000.0001) // =======================================================
(PID.TID 0000.0001) %MON time_tsnumber                =                    56
(PID.TID 0000.0001) %MON time_secondsf                =   2.4192000000000E+06
(PID.TID 0000.0001) %MON dynstat_eta_max              =   9.3901558235484E-01
(PID.TID 0000.0001) %MON dynstat_eta_min              =  -1.2357047298895E+00
(PID.TID 0000.0001) %MON dynstat_eta_mean             =  -2.0359750067561E-16
(PID.TID 0000.0001) %MON dynstat_eta_sd               =   4.1362868964306E-01
(PID.TID 0000.0001) %MON dynstat_eta_del2             =   1.9018805344473E-02
(PID.TID 0000.0001) %MON dynstat_uvel_max             =   1.6200892833871E-01
(PID.TID 0000.0001) %MON dynstat_uvel_min             =  -1.9707775995052E-01
(PID.TID 0000.0001) %MON dynstat_uvel_mean            =  -1.3868509539758E-03
(PID.TID 0000.0001) %MON dynstat_uvel_sd              =   1.6999872324956E-02
(PID.TID 0000.0001) %MON dynstat_uvel_del2            =   5.2900757614177E-03
(PID.TID 0000.0001) %MON dynstat_vvel_max             =   1.6417346393762E-01
(PID.TID 0000.0001) %MON dynstat_vvel_min             =  -1.4119297436053E-01
(PID.TID 0000.0001) %MON dynstat_vvel_mean            =  -8.2524106758932E-04
(PID.TID 0000.0001) %MON dynstat_vvel_sd              =   1.4908027972029E-02
(PID.TID 0000.0001) %MON dynstat_vvel_del2            =   4.9395258344556E-03
(PID.TID 0000.0001) %MON dynstat_wvel_max             =   3.1961806890939E-04
(PID.TID 0000.0001) %MON dynstat_wvel_min             =  -2.4090387163508E-04
(PID.TID 0000.0001) %MON dynstat_wvel_mean            =   3.7968829469096E-22
(PID.TID 0000.0001) %MON dynstat_wvel_sd              =   2.7426401300641E-05
(PID.TID 0000.0001) %MON dynstat_wvel_del2            =   1.1185580525424E-05
(PID.TID 0000.0001) %MON dynstat_theta_max            =   2.9759525075768E+01
(PID.TID 0000.0001) %MON dynstat_theta_min            =  -1.9560516421394E+00
(PID.TID 0000.0001) %MON dynstat_theta_mean           =   3.5926520374237E+00
(PID.TID 0000.0001) %MON dynstat_theta_sd             =   4.3432424698178E+00
(PID.TID 0000.0001) %MON dynstat_theta_del2           =   1.3163292852878E-01
(PID.TID 0000.0001) %MON dynstat_salt_max             =   3.7387239753483E+01
(PID.TID 0000.0001) %MON dynstat_salt_min             =   2.9798782921961E+01
(PID.TID 0000.0001) %MON dynstat_salt_mean            =   3.4716184375418E+01
(PID.TID 0000.0001) %MON dynstat_salt_sd              =   2.9367602035086E-01
(PID.TID 0000.0001) %MON dynstat_salt_del2            =   2.4211564303422E-02
(PID.TID 0000.0001) %MON advcfl_uvel_max              =   3.3166863116409E-02
(PID.TID 0000.0001) %MON advcfl_vvel_max              =   1.5948135508638E-02
(PID.TID 0000.0001) %MON advcfl_wvel_max              =   1.8508151826901E-01
(PID.TID 0000.0001) %MON advcfl_W_hf_max              =   1.7011990546534E-01
(PID.TID 0000.0001) %MON pe_b_mean                    =   2.1892860436469E-04
(PID.TID 0000.0001) %MON ke_max                       =   1.9943664171408E-02
(PID.TID 0000.0001) %MON ke_mean                      =   2.3225210505806E-04
(PID.TID 0000.0001) %MON ke_vol                       =   1.3226782436723E+18
(PID.TID 0000.0001) %MON vort_r_min                   =  -1.0635934260242E-06
(PID.TID 0000.0001) %MON vort_r_max                   =   6.8779305477932E-07
(PID.TID 0000.0001) %MON vort_a_mean                  =  -2.5205768612673E-05
(PID.TID 0000.0001) %MON vort_a_sd                    =   7.3403120466516E-05
(PID.TID 0000.0001) %MON vort_p_mean                  =  -3.1758668573723E-05
(PID.TID 0000.0001) %MON vort_p_sd                    =   1.3126333069659E-04
(PID.TID 0000.0001) %MON surfExpan_theta_mean         =   9.6453073953530E-06
(PID.TID 0000.0001) %MON surfExpan_salt_mean          =  -6.4134657433966E-07
(PID.TID 0000.0001) // =======================================================
(PID.TID 0000.0001) // End MONITOR dynamic field statistics
(PID.TID 0000.0001) // =======================================================
time,SST,SSS,fu,fv,Q,E-P,i0,i1,a,b =   2.4192E+06  3.1264E-01  3.4587E+01 -2.6447E-02 -4.0088E-02  2.5481E+02  0.0000E+00     1     2  4.3333E-01  5.6667E-01
time,fu0,fu1,fu =   2.4192E+06 -3.5633E-02 -1.4435E-02 -2.6447E-02  4.3333E-01  5.6667E-01
 cg2d: Sum(rhs),rhsMax =  -2.28705943072782E-13  8.37678261237716E+00
(PID.TID 0000.0001)                    cg2d_init_res =    5.56435400568923E-01
(PID.TID 0000.0001)                       cg2d_iters =    25
(PID.TID 0000.0001)                         cg2d_res =    2.43338694903506E-14
(PID.TID 0000.0001) // =======================================================
(PID.TID 0000.0001) // Begin MONITOR dynamic field statistics
(PID.TID 0000.0001) // =======================================================
(PID.TID 0000.0001) %MON time_tsnumber                =                    57
(PID.TID 0000.0001) %MON time_secondsf                =   2.4624000000000E+06
(PID.TID 0000.0001) %MON dynstat_eta_max              =   9.9351510151025E-01
(PID.TID 0000.0001) %MON dynstat_eta_min              =  -1.2605190920720E+00
(PID.TID 0000.0001) %MON dynstat_eta_mean             =  -1.8225676920471E-16
(PID.TID 0000.0001) %MON dynstat_eta_sd               =   4.1404814765163E-01
(PID.TID 0000.0001) %MON dynstat_eta_del2             =   1.9021624868957E-02
(PID.TID 0000.0001) %MON dynstat_uvel_max             =   1.7225779427904E-01
(PID.TID 0000.0001) %MON dynstat_uvel_min             =  -1.9581046462061E-01
(PID.TID 0000.0001) %MON dynstat_uvel_mean            =  -1.2398786178789E-03
(PID.TID 0000.0001) %MON dynstat_uvel_sd              =   1.7118073198465E-02
(PID.TID 0000.0001) %MON dynstat_uvel_del2            =   5.2659160363071E-03
(PID.TID 0000.0001) %MON dynstat_vvel_max             =   1.6477176655302E-01
(PID.TID 0000.0001) %MON dynstat_vvel_min             =  -1.3992965427259E-01
(PID.TID 0000.0001) %MON dynstat_vvel_mean            =  -1.0673627944122E-03
(PID.TID 0000.0001) %MON dynstat_vvel_sd              =   1.4978719597598E-02
(PID.TID 0000.0001) %MON dynstat_vvel_del2            =   4.9060877652701E-03
(PID.TID 0000.0001) %MON dynstat_wvel_max             =   3.2423627182118E-04
(PID.TID 0000.0001) %MON dynstat_wvel_min             =  -2.4012189029492E-04
(PID.TID 0000.0001) %MON dynstat_wvel_mean            =  -9.9808230499393E-22
(PID.TID 0000.0001) %MON dynstat_wvel_sd              =   2.7252266948438E-05
(PID.TID 0000.0001) %MON dynstat_wvel_del2            =   1.1061639089440E-05
(PID.TID 0000.0001) %MON dynstat_theta_max            =   2.9794185421448E+01
(PID.TID 0000.0001) %MON dynstat_theta_min            =  -1.9572100394458E+00
(PID.TID 0000.0001) %MON dynstat_theta_mean           =   3.5925888657058E+00
(PID.TID 0000.0001) %MON dynstat_theta_sd             =   4.3429715213137E+00
(PID.TID 0000.0001) %MON dynstat_theta_del2           =   1.3149022386125E-01
(PID.TID 0000.0001) %MON dynstat_salt_max             =   3.7387826361874E+01
(PID.TID 0000.0001) %MON dynstat_salt_min             =   2.9797885594184E+01
(PID.TID 0000.0001) %MON dynstat_salt_mean            =   3.4716191133612E+01
(PID.TID 0000.0001) %MON dynstat_salt_sd              =   2.9370473065719E-01
(PID.TID 0000.0001) %MON dynstat_salt_del2            =   2.4163228772632E-02
(PID.TID 0000.0001) %MON advcfl_uvel_max              =   3.3552598482752E-02
(PID.TID 0000.0001) %MON advcfl_vvel_max              =   1.6006255809914E-02
(PID.TID 0000.0001) %MON advcfl_wvel_max              =   1.9415360971499E-01
(PID.TID 0000.0001) %MON advcfl_W_hf_max              =   1.7757373031169E-01
(PID.TID 0000.0001) %MON pe_b_mean                    =   2.1937285749064E-04
(PID.TID 0000.0001) %MON ke_max                       =   2.0028681832018E-02
(PID.TID 0000.0001) %MON ke_mean                      =   2.3506308969431E-04
(PID.TID 0000.0001) %MON ke_vol                       =   1.3226782436723E+18
(PID.TID 0000.0001) %MON vort_r_min                   =  -1.0735014774408E-06
(PID.TID 0000.0001) %MON vort_r_max                   =   6.9472237359465E-07
(PID.TID 0000.0001) %MON vort_a_mean                  =  -2.5205768589468E-05
(PID.TID 0000.0001) %MON vort_a_sd                    =   7.3403147749647E-05
(PID.TID 0000.0001) %MON vort_p_mean                  =  -3.1758668544485E-05
(PID.TID 0000.0001) %MON vort_p_sd                    =   1.3126332181826E-04
(PID.TID 0000.0001) %MON surfExpan_theta_mean         =   9.7324865939255E-06
(PID.TID 0000.0001) %MON surfExpan_salt_mean          =  -6.1914843381141E-07
(PID.TID 0000.0001) // =======================================================
(PID.TID 0000.0001) // End MONITOR dynamic field statistics
(PID.TID 0000.0001) // =======================================================
time,SST,SSS,fu,fv,Q,E-P,i0,i1,a,b =   2.4624E+06  2.8780E-01  3.4582E+01 -2.6094E-02 -3.9427E-02  2.5439E+02  0.0000E+00     1     2  4.5000E-01  5.5000E-01
time,fu0,fu1,fu =   2.4624E+06 -3.5633E-02 -1.4435E-02 -2.6094E-02  4.5000E-01  5.5000E-01
 cg2d: Sum(rhs),rhsMax =  -4.22134549538100E-13  9.30280329281477E+00
(PID.TID 0000.0001)                    cg2d_init_res =    4.94074509774992E-01
(PID.TID 0000.0001)                       cg2d_iters =    24
(PID.TID 0000.0001)                         cg2d_res =    9.76758878580907E-14
(PID.TID 0000.0001) // =======================================================
(PID.TID 0000.0001) // Begin MONITOR dynamic field statistics
(PID.TID 0000.0001) // =======================================================
(PID.TID 0000.0001) %MON time_tsnumber                =                    58
(PID.TID 0000.0001) %MON time_secondsf                =   2.5056000000000E+06
(PID.TID 0000.0001) %MON dynstat_eta_max              =   1.1044691074137E+00
(PID.TID 0000.0001) %MON dynstat_eta_min              =  -1.2789240566816E+00
(PID.TID 0000.0001) %MON dynstat_eta_mean             =   6.2336222124721E-17
(PID.TID 0000.0001) %MON dynstat_eta_sd               =   4.1465461474464E-01
(PID.TID 0000.0001) %MON dynstat_eta_del2             =   1.9068257384034E-02
(PID.TID 0000.0001) %MON dynstat_uvel_max             =   1.8136107636171E-01
(PID.TID 0000.0001) %MON dynstat_uvel_min             =  -1.9432668884334E-01
(PID.TID 0000.0001) %MON dynstat_uvel_mean            =  -1.0932694704742E-03
(PID.TID 0000.0001) %MON dynstat_uvel_sd              =   1.7259466904173E-02
(PID.TID 0000.0001) %MON dynstat_uvel_del2            =   5.2433551972567E-03
(PID.TID 0000.0001) %MON dynstat_vvel_max             =   1.6519606484721E-01
(PID.TID 0000.0001) %MON dynstat_vvel_min             =  -1.3988687135936E-01
(PID.TID 0000.0001) %MON dynstat_vvel_mean            =  -1.2872397508661E-03
(PID.TID 0000.0001) %MON dynstat_vvel_sd              =   1.5040168275478E-02
(PID.TID 0000.0001) %MON dynstat_vvel_del2            =   4.8721965197030E-03
(PID.TID 0000.0001) %MON dynstat_wvel_max             =   3.2857881972326E-04
(PID.TID 0000.0001) %MON dynstat_wvel_min             =  -2.3824102539867E-04
(PID.TID 0000.0001) %MON dynstat_wvel_mean            =  -6.8254334356218E-22
(PID.TID 0000.0001) %MON dynstat_wvel_sd              =   2.7073377703741E-05
(PID.TID 0000.0001) %MON dynstat_wvel_del2            =   1.0937931858493E-05
(PID.TID 0000.0001) %MON dynstat_theta_max            =   2.9820115049783E+01
(PID.TID 0000.0001) %MON dynstat_theta_min            =  -1.9582218922618E+00
(PID.TID 0000.0001) %MON dynstat_theta_mean           =   3.5925228283441E+00
(PID.TID 0000.0001) %MON dynstat_theta_sd             =   4.3427160909134E+00
(PID.TID 0000.0001) %MON dynstat_theta_del2           =   1.3139060057974E-01
(PID.TID 0000.0001) %MON dynstat_salt_max             =   3.7388336077577E+01
(PID.TID 0000.0001) %MON dynstat_salt_min             =   2.9796932503681E+01
(PID.TID 0000.0001) %MON dynstat_salt_mean            =   3.4716196805554E+01
(PID.TID 0000.0001) %MON dynstat_salt_sd              =   2.9373628640039E-01
(PID.TID 0000.0001) %MON dynstat_salt_del2            =   2.4121037941089E-02
(PID.TID 0000.0001) %MON advcfl_uvel_max              =   3.3876593846055E-02
(PID.TID 0000.0001) %MON advcfl_vvel_max              =   1.6047472986732E-02
(PID.TID 0000.0001) %MON advcfl_wvel_max              =   2.0392114675121E-01
(PID.TID 0000.0001) %MON advcfl_W_hf_max              =   1.8493528165786E-01
(PID.TID 0000.0001) %MON pe_b_mean                    =   2.2001597040044E-04
(PID.TID 0000.0001) %MON ke_max                       =   2.0071273296309E-02
(PID.TID 0000.0001) %MON ke_mean                      =   2.3817656633649E-04
(PID.TID 0000.0001) %MON ke_vol                       =   1.3226782436723E+18
(PID.TID 0000.0001) %MON vort_r_min                   =  -1.0821419372916E-06
(PID.TID 0000.0001) %MON vort_r_max                   =   7.0037801434302E-07
(PID.TID 0000.0001) %MON vort_a_mean                  =  -2.5205768565212E-05
(PID.TID 0000.0001) %MON vort_a_sd                    =   7.3403175026434E-05
(PID.TID 0000.0001) %MON vort_p_mean                  =  -3.1758668513923E-05
(PID.TID 0000.0001) %MON vort_p_sd                    =   1.3126330682158E-04
(PID.TID 0000.0001) %MON surfExpan_theta_mean         =   9.9221581382338E-06
(PID.TID 0000.0001) %MON surfExpan_salt_mean          =  -5.5118670525952E-07
(PID.TID 0000.0001) // =======================================================
(PID.TID 0000.0001) // End MONITOR dynamic field statistics
(PID.TID 0000.0001) // =======================================================
time,SST,SSS,fu,fv,Q,E-P,i0,i1,a,b =   2.5056E+06  2.6296E-01  3.4578E+01 -2.5740E-02 -3.8767E-02  2.5397E+02  0.0000E+00     1     2  4.6667E-01  5.3333E-01
time,fu0,fu1,fu =   2.5056E+06 -3.5633E-02 -1.4435E-02 -2.5740E-02  4.6667E-01  5.3333E-01
 cg2d: Sum(rhs),rhsMax =  -3.22034066080334E-13  1.01469456356352E+01
(PID.TID 0000.0001)                    cg2d_init_res =    4.43535494111867E-01
(PID.TID 0000.0001)                       cg2d_iters =    24
(PID.TID 0000.0001)                         cg2d_res =    8.69816802487063E-14
(PID.TID 0000.0001) // =======================================================
(PID.TID 0000.0001) // Begin MONITOR dynamic field statistics
(PID.TID 0000.0001) // =======================================================
(PID.TID 0000.0001) %MON time_tsnumber                =                    59
(PID.TID 0000.0001) %MON time_secondsf                =   2.5488000000000E+06
(PID.TID 0000.0001) %MON dynstat_eta_max              =   1.2028028460229E+00
(PID.TID 0000.0001) %MON dynstat_eta_min              =  -1.2910385246647E+00
(PID.TID 0000.0001) %MON dynstat_eta_mean             =  -8.4745676766756E-17
(PID.TID 0000.0001) %MON dynstat_eta_sd               =   4.1545533990622E-01
(PID.TID 0000.0001) %MON dynstat_eta_del2             =   1.9099408800149E-02
(PID.TID 0000.0001) %MON dynstat_uvel_max             =   1.8917861388940E-01
(PID.TID 0000.0001) %MON dynstat_uvel_min             =  -1.9263583583681E-01
(PID.TID 0000.0001) %MON dynstat_uvel_mean            =  -9.4853719457200E-04
(PID.TID 0000.0001) %MON dynstat_uvel_sd              =   1.7422469356870E-02
(PID.TID 0000.0001) %MON dynstat_uvel_del2            =   5.2225330873006E-03
(PID.TID 0000.0001) %MON dynstat_vvel_max             =   1.6547075861377E-01
(PID.TID 0000.0001) %MON dynstat_vvel_min             =  -1.4120126448514E-01
(PID.TID 0000.0001) %MON dynstat_vvel_mean            =  -1.4834803970493E-03
(PID.TID 0000.0001) %MON dynstat_vvel_sd              =   1.5089214521635E-02
(PID.TID 0000.0001) %MON dynstat_vvel_del2            =   4.8388813991327E-03
(PID.TID 0000.0001) %MON dynstat_wvel_max             =   3.3266515645568E-04
(PID.TID 0000.0001) %MON dynstat_wvel_min             =  -2.3517926838606E-04
(PID.TID 0000.0001) %MON dynstat_wvel_mean            =  -1.5618780880812E-22
(PID.TID 0000.0001) %MON dynstat_wvel_sd              =   2.6885799800549E-05
(PID.TID 0000.0001) %MON dynstat_wvel_del2            =   1.0816132879995E-05
(PID.TID 0000.0001) %MON dynstat_theta_max            =   2.9837197916185E+01
(PID.TID 0000.0001) %MON dynstat_theta_min            =  -1.9590794922154E+00
(PID.TID 0000.0001) %MON dynstat_theta_mean           =   3.5924529005263E+00
(PID.TID 0000.0001) %MON dynstat_theta_sd             =   4.3424734323587E+00
(PID.TID 0000.0001) %MON dynstat_theta_del2           =   1.3123279630347E-01
(PID.TID 0000.0001) %MON dynstat_salt_max             =   3.7388777420808E+01
(PID.TID 0000.0001) %MON dynstat_salt_min             =   2.9795918491107E+01
(PID.TID 0000.0001) %MON dynstat_salt_mean            =   3.4716200981635E+01
(PID.TID 0000.0001) %MON dynstat_salt_sd              =   2.9376992445504E-01
(PID.TID 0000.0001) %MON dynstat_salt_del2            =   2.4072223537188E-02
(PID.TID 0000.0001) %MON advcfl_uvel_max              =   3.4679217287655E-02
(PID.TID 0000.0001) %MON advcfl_vvel_max              =   1.6074157283373E-02
(PID.TID 0000.0001) %MON advcfl_wvel_max              =   2.0819874365252E-01
(PID.TID 0000.0001) %MON advcfl_W_hf_max              =   1.8883883277992E-01
(PID.TID 0000.0001) %MON pe_b_mean                    =   2.2086652127971E-04
(PID.TID 0000.0001) %MON ke_max                       =   2.0071554919557E-02
(PID.TID 0000.0001) %MON ke_mean                      =   2.4151818451631E-04
(PID.TID 0000.0001) %MON ke_vol                       =   1.3226782436723E+18
(PID.TID 0000.0001) %MON vort_r_min                   =  -1.0894746516136E-06
(PID.TID 0000.0001) %MON vort_r_max                   =   7.0474440694833E-07
(PID.TID 0000.0001) %MON vort_a_mean                  =  -2.5205768539509E-05
(PID.TID 0000.0001) %MON vort_a_sd                    =   7.3403201996816E-05
(PID.TID 0000.0001) %MON vort_p_mean                  =  -3.1758668481538E-05
(PID.TID 0000.0001) %MON vort_p_sd                    =   1.3126328613992E-04
(PID.TID 0000.0001) %MON surfExpan_theta_mean         =   1.0203965176814E-05
(PID.TID 0000.0001) %MON surfExpan_salt_mean          =  -4.4414979372768E-07
(PID.TID 0000.0001) // =======================================================
(PID.TID 0000.0001) // End MONITOR dynamic field statistics
(PID.TID 0000.0001) // =======================================================
time,SST,SSS,fu,fv,Q,E-P,i0,i1,a,b =   2.5488E+06  2.3812E-01  3.4573E+01 -2.5387E-02 -3.8106E-02  2.5355E+02  0.0000E+00     1     2  4.8333E-01  5.1667E-01
time,fu0,fu1,fu =   2.5488E+06 -3.5633E-02 -1.4435E-02 -2.5387E-02  4.8333E-01  5.1667E-01
 cg2d: Sum(rhs),rhsMax =   5.04193908845707E-13  1.08659384921325E+01
(PID.TID 0000.0001)                    cg2d_init_res =    4.02742131411697E-01
(PID.TID 0000.0001)                       cg2d_iters =    24
(PID.TID 0000.0001)                         cg2d_res =    7.74131565460020E-14
(PID.TID 0000.0001) // =======================================================
(PID.TID 0000.0001) // Begin MONITOR dynamic field statistics
(PID.TID 0000.0001) // =======================================================
(PID.TID 0000.0001) %MON time_tsnumber                =                    60
(PID.TID 0000.0001) %MON time_secondsf                =   2.5920000000000E+06
(PID.TID 0000.0001) %MON dynstat_eta_max              =   1.2865751296842E+00
(PID.TID 0000.0001) %MON dynstat_eta_min              =  -1.2971153983725E+00
(PID.TID 0000.0001) %MON dynstat_eta_mean             =  -4.2267759414914E-17
(PID.TID 0000.0001) %MON dynstat_eta_sd               =   4.1643852529995E-01
(PID.TID 0000.0001) %MON dynstat_eta_del2             =   1.9151055439191E-02
(PID.TID 0000.0001) %MON dynstat_uvel_max             =   1.9558918702735E-01
(PID.TID 0000.0001) %MON dynstat_uvel_min             =  -1.9074768847476E-01
(PID.TID 0000.0001) %MON dynstat_uvel_mean            =  -8.0703891334801E-04
(PID.TID 0000.0001) %MON dynstat_uvel_sd              =   1.7604276991275E-02
(PID.TID 0000.0001) %MON dynstat_uvel_del2            =   5.2033863864501E-03
(PID.TID 0000.0001) %MON dynstat_vvel_max             =   1.6562663109444E-01
(PID.TID 0000.0001) %MON dynstat_vvel_min             =  -1.4311882320917E-01
(PID.TID 0000.0001) %MON dynstat_vvel_mean            =  -1.6551063629439E-03
(PID.TID 0000.0001) %MON dynstat_vvel_sd              =   1.5124824824671E-02
(PID.TID 0000.0001) %MON dynstat_vvel_del2            =   4.8074497196031E-03
(PID.TID 0000.0001) %MON dynstat_wvel_max             =   3.3651588270230E-04
(PID.TID 0000.0001) %MON dynstat_wvel_min             =  -2.3089018559452E-04
(PID.TID 0000.0001) %MON dynstat_wvel_mean            =   3.9475039544542E-22
(PID.TID 0000.0001) %MON dynstat_wvel_sd              =   2.6688451707498E-05
(PID.TID 0000.0001) %MON dynstat_wvel_del2            =   1.0695377591962E-05
(PID.TID 0000.0001) %MON dynstat_theta_max            =   2.9845363914904E+01
(PID.TID 0000.0001) %MON dynstat_theta_min            =  -1.9597731146465E+00
(PID.TID 0000.0001) %MON dynstat_theta_mean           =   3.5923782754920E+00
(PID.TID 0000.0001) %MON dynstat_theta_sd             =   4.3422380551480E+00
(PID.TID 0000.0001) %MON dynstat_theta_del2           =   1.3108890583534E-01
(PID.TID 0000.0001) %MON dynstat_salt_max             =   3.7389161918765E+01
(PID.TID 0000.0001) %MON dynstat_salt_min             =   2.9794838547983E+01
(PID.TID 0000.0001) %MON dynstat_salt_mean            =   3.4716203352528E+01
(PID.TID 0000.0001) %MON dynstat_salt_sd              =   2.9380432758887E-01
(PID.TID 0000.0001) %MON dynstat_salt_del2            =   2.4025429102894E-02
(PID.TID 0000.0001) %MON advcfl_uvel_max              =   3.5854369458500E-02
(PID.TID 0000.0001) %MON advcfl_vvel_max              =   1.6089299044923E-02
(PID.TID 0000.0001) %MON advcfl_wvel_max              =   2.0679506401689E-01
(PID.TID 0000.0001) %MON advcfl_W_hf_max              =   1.8749043617729E-01
(PID.TID 0000.0001) %MON pe_b_mean                    =   2.2191313045995E-04
(PID.TID 0000.0001) %MON ke_max                       =   2.0029966761052E-02
(PID.TID 0000.0001) %MON ke_mean                      =   2.4502332747827E-04
(PID.TID 0000.0001) %MON ke_vol                       =   1.3226782436723E+18
(PID.TID 0000.0001) %MON vort_r_min                   =  -1.0954531506757E-06
(PID.TID 0000.0001) %MON vort_r_max                   =   7.0781155330137E-07
(PID.TID 0000.0001) %MON vort_a_mean                  =  -2.5205768512053E-05
(PID.TID 0000.0001) %MON vort_a_sd                    =   7.3403228381641E-05
(PID.TID 0000.0001) %MON vort_p_mean                  =  -3.1758668446944E-05
(PID.TID 0000.0001) %MON vort_p_sd                    =   1.3126326003394E-04
(PID.TID 0000.0001) %MON surfExpan_theta_mean         =   1.0568729209342E-05
(PID.TID 0000.0001) %MON surfExpan_salt_mean          =  -3.0480104655778E-07
(PID.TID 0000.0001) // =======================================================
(PID.TID 0000.0001) // End MONITOR dynamic field statistics
(PID.TID 0000.0001) // =======================================================
time,SST,SSS,fu,fv,Q,E-P,i0,i1,a,b =   2.5920E+06  2.1328E-01  3.4568E+01 -2.5034E-02 -3.7446E-02  2.5313E+02  0.0000E+00     1     2  5.0000E-01  5.0000E-01
time,fu0,fu1,fu =   2.5920E+06 -3.5633E-02 -1.4435E-02 -2.5034E-02  5.0000E-01  5.0000E-01
 cg2d: Sum(rhs),rhsMax =   1.25274790541141E-13  1.14474202780220E+01
(PID.TID 0000.0001)                    cg2d_init_res =    3.69684301695106E-01
(PID.TID 0000.0001)                       cg2d_iters =    24
(PID.TID 0000.0001)                         cg2d_res =    6.76381005432428E-14
(PID.TID 0000.0001) // =======================================================
(PID.TID 0000.0001) // Begin MONITOR dynamic field statistics
(PID.TID 0000.0001) // =======================================================
(PID.TID 0000.0001) %MON time_tsnumber                =                    61
(PID.TID 0000.0001) %MON time_secondsf                =   2.6352000000000E+06
(PID.TID 0000.0001) %MON dynstat_eta_max              =   1.3543459635308E+00
(PID.TID 0000.0001) %MON dynstat_eta_min              =  -1.2975219067087E+00
(PID.TID 0000.0001) %MON dynstat_eta_mean             =   8.9686364388264E-17
(PID.TID 0000.0001) %MON dynstat_eta_sd               =   4.1757657360576E-01
(PID.TID 0000.0001) %MON dynstat_eta_del2             =   1.9262087680394E-02
(PID.TID 0000.0001) %MON dynstat_uvel_max             =   2.0049265223921E-01
(PID.TID 0000.0001) %MON dynstat_uvel_min             =  -1.8867209866210E-01
(PID.TID 0000.0001) %MON dynstat_uvel_mean            =  -6.6993441038163E-04
(PID.TID 0000.0001) %MON dynstat_uvel_sd              =   1.7800912957195E-02
(PID.TID 0000.0001) %MON dynstat_uvel_del2            =   5.1856475759610E-03
(PID.TID 0000.0001) %MON dynstat_vvel_max             =   1.6569912957316E-01
(PID.TID 0000.0001) %MON dynstat_vvel_min             =  -1.4347831765414E-01
(PID.TID 0000.0001) %MON dynstat_vvel_mean            =  -1.8015465536062E-03
(PID.TID 0000.0001) %MON dynstat_vvel_sd              =   1.5147957871784E-02
(PID.TID 0000.0001) %MON dynstat_vvel_del2            =   4.7792574402347E-03
(PID.TID 0000.0001) %MON dynstat_wvel_max             =   3.4015172568031E-04
(PID.TID 0000.0001) %MON dynstat_wvel_min             =  -2.2536326959616E-04
(PID.TID 0000.0001) %MON dynstat_wvel_mean            =   7.1284812574022E-22
(PID.TID 0000.0001) %MON dynstat_wvel_sd              =   2.6482834688502E-05
(PID.TID 0000.0001) %MON dynstat_wvel_del2            =   1.0579297591433E-05
(PID.TID 0000.0001) %MON dynstat_theta_max            =   2.9844206227653E+01
(PID.TID 0000.0001) %MON dynstat_theta_min            =  -1.9602915690904E+00
(PID.TID 0000.0001) %MON dynstat_theta_mean           =   3.5922982634724E+00
(PID.TID 0000.0001) %MON dynstat_theta_sd             =   4.3420042153562E+00
(PID.TID 0000.0001) %MON dynstat_theta_del2           =   1.3097676483461E-01
(PID.TID 0000.0001) %MON dynstat_salt_max             =   3.7389501992968E+01
(PID.TID 0000.0001) %MON dynstat_salt_min             =   2.9793688187515E+01
(PID.TID 0000.0001) %MON dynstat_salt_mean            =   3.4716203697673E+01
(PID.TID 0000.0001) %MON dynstat_salt_sd              =   2.9383823375404E-01
(PID.TID 0000.0001) %MON dynstat_salt_del2            =   2.3982226503138E-02
(PID.TID 0000.0001) %MON advcfl_uvel_max              =   3.6753246620397E-02
(PID.TID 0000.0001) %MON advcfl_vvel_max              =   1.6096341690764E-02
(PID.TID 0000.0001) %MON advcfl_wvel_max              =   1.9970633557894E-01
(PID.TID 0000.0001) %MON advcfl_W_hf_max              =   1.8088759387344E-01
(PID.TID 0000.0001) %MON pe_b_mean                    =   2.2312768161091E-04
(PID.TID 0000.0001) %MON ke_max                       =   1.9947199956948E-02
(PID.TID 0000.0001) %MON ke_mean                      =   2.4863588896723E-04
(PID.TID 0000.0001) %MON ke_vol                       =   1.3226782436723E+18
(PID.TID 0000.0001) %MON vort_r_min                   =  -1.1000245852808E-06
(PID.TID 0000.0001) %MON vort_r_max                   =   7.0957407912661E-07
(PID.TID 0000.0001) %MON vort_a_mean                  =  -2.5205768482639E-05
(PID.TID 0000.0001) %MON vort_a_sd                    =   7.3403253933720E-05
(PID.TID 0000.0001) %MON vort_p_mean                  =  -3.1758668409884E-05
(PID.TID 0000.0001) %MON vort_p_sd                    =   1.3126322922774E-04
(PID.TID 0000.0001) %MON surfExpan_theta_mean         =   1.1002970342315E-05
(PID.TID 0000.0001) %MON surfExpan_salt_mean          =  -1.4113629225101E-07
(PID.TID 0000.0001) // =======================================================
(PID.TID 0000.0001) // End MONITOR dynamic field statistics
(PID.TID 0000.0001) // =======================================================
time,SST,SSS,fu,fv,Q,E-P,i0,i1,a,b =   2.6352E+06  1.8845E-01  3.4563E+01 -2.4681E-02 -3.6786E-02  2.5270E+02  0.0000E+00     1     2  5.1667E-01  4.8333E-01
time,fu0,fu1,fu =   2.6352E+06 -3.5633E-02 -1.4435E-02 -2.4681E-02  5.1667E-01  4.8333E-01
 cg2d: Sum(rhs),rhsMax =   2.29649632643714E-13  1.18834282583128E+01
(PID.TID 0000.0001)                    cg2d_init_res =    3.43510369955199E-01
(PID.TID 0000.0001)                       cg2d_iters =    24
(PID.TID 0000.0001)                         cg2d_res =    4.72052170464565E-14
(PID.TID 0000.0001) // =======================================================
(PID.TID 0000.0001) // Begin MONITOR dynamic field statistics
(PID.TID 0000.0001) // =======================================================
(PID.TID 0000.0001) %MON time_tsnumber                =                    62
(PID.TID 0000.0001) %MON time_secondsf                =   2.6784000000000E+06
(PID.TID 0000.0001) %MON dynstat_eta_max              =   1.4051854587507E+00
(PID.TID 0000.0001) %MON dynstat_eta_min              =  -1.2927187503696E+00
(PID.TID 0000.0001) %MON dynstat_eta_mean             =  -2.9850187396482E-16
(PID.TID 0000.0001) %MON dynstat_eta_sd               =   4.1883133787611E-01
(PID.TID 0000.0001) %MON dynstat_eta_del2             =   1.9437900199114E-02
(PID.TID 0000.0001) %MON dynstat_uvel_max             =   2.0381175483010E-01
(PID.TID 0000.0001) %MON dynstat_uvel_min             =  -1.8641869996590E-01
(PID.TID 0000.0001) %MON dynstat_uvel_mean            =  -5.3816287250323E-04
(PID.TID 0000.0001) %MON dynstat_uvel_sd              =   1.8007384481046E-02
(PID.TID 0000.0001) %MON dynstat_uvel_del2            =   5.1694698737593E-03
(PID.TID 0000.0001) %MON dynstat_vvel_max             =   1.6572692322258E-01
(PID.TID 0000.0001) %MON dynstat_vvel_min             =  -1.4410868561865E-01
(PID.TID 0000.0001) %MON dynstat_vvel_mean            =  -1.9226358423082E-03
(PID.TID 0000.0001) %MON dynstat_vvel_sd              =   1.5161193184405E-02
(PID.TID 0000.0001) %MON dynstat_vvel_del2            =   4.7534425342881E-03
(PID.TID 0000.0001) %MON dynstat_wvel_max             =   3.4359250231272E-04
(PID.TID 0000.0001) %MON dynstat_wvel_min             =  -2.1862338912857E-04
(PID.TID 0000.0001) %MON dynstat_wvel_mean            =  -7.0544015482958E-23
(PID.TID 0000.0001) %MON dynstat_wvel_sd              =   2.6272785162287E-05
(PID.TID 0000.0001) %MON dynstat_wvel_del2            =   1.0466918323274E-05
(PID.TID 0000.0001) %MON dynstat_theta_max            =   2.9832599855531E+01
(PID.TID 0000.0001) %MON dynstat_theta_min            =  -1.9606228513241E+00
(PID.TID 0000.0001) %MON dynstat_theta_mean           =   3.5922123573556E+00
(PID.TID 0000.0001) %MON dynstat_theta_sd             =   4.3417674951942E+00
(PID.TID 0000.0001) %MON dynstat_theta_del2           =   1.3084357288014E-01
(PID.TID 0000.0001) %MON dynstat_salt_max             =   3.7389810213020E+01
(PID.TID 0000.0001) %MON dynstat_salt_min             =   2.9792463772611E+01
(PID.TID 0000.0001) %MON dynstat_salt_mean            =   3.4716201894153E+01
(PID.TID 0000.0001) %MON dynstat_salt_sd              =   2.9387057891705E-01
(PID.TID 0000.0001) %MON dynstat_salt_del2            =   2.3938737895468E-02
(PID.TID 0000.0001) %MON advcfl_uvel_max              =   3.7361686853587E-02
(PID.TID 0000.0001) %MON advcfl_vvel_max              =   1.6099041620926E-02
(PID.TID 0000.0001) %MON advcfl_wvel_max              =   1.8712295307511E-01
(PID.TID 0000.0001) %MON advcfl_W_hf_max              =   1.6920743205461E-01
(PID.TID 0000.0001) %MON pe_b_mean                    =   2.2447063665844E-04
(PID.TID 0000.0001) %MON ke_max                       =   1.9824128374629E-02
(PID.TID 0000.0001) %MON ke_mean                      =   2.5230504529579E-04
(PID.TID 0000.0001) %MON ke_vol                       =   1.3226782436723E+18
(PID.TID 0000.0001) %MON vort_r_min                   =  -1.1031313152593E-06
(PID.TID 0000.0001) %MON vort_r_max                   =   7.1003038517291E-07
(PID.TID 0000.0001) %MON vort_a_mean                  =  -2.5205768451165E-05
(PID.TID 0000.0001) %MON vort_a_sd                    =   7.3403278444669E-05
(PID.TID 0000.0001) %MON vort_p_mean                  =  -3.1758668370227E-05
(PID.TID 0000.0001) %MON vort_p_sd                    =   1.3126319456695E-04
(PID.TID 0000.0001) %MON surfExpan_theta_mean         =   1.1487605748337E-05
(PID.TID 0000.0001) %MON surfExpan_salt_mean          =   3.8243178947769E-08
(PID.TID 0000.0001) // =======================================================
(PID.TID 0000.0001) // End MONITOR dynamic field statistics
(PID.TID 0000.0001) // =======================================================
time,SST,SSS,fu,fv,Q,E-P,i0,i1,a,b =   2.6784E+06  1.6361E-01  3.4558E+01 -2.4327E-02 -3.6125E-02  2.5228E+02  0.0000E+00     1     2  5.3333E-01  4.6667E-01
time,fu0,fu1,fu =   2.6784E+06 -3.5633E-02 -1.4435E-02 -2.4327E-02  5.3333E-01  4.6667E-01
 cg2d: Sum(rhs),rhsMax =   1.44273482050039E-13  1.21703391045403E+01
(PID.TID 0000.0001)                    cg2d_init_res =    3.24125024972364E-01
(PID.TID 0000.0001)                       cg2d_iters =    24
(PID.TID 0000.0001)                         cg2d_res =    4.58170640028260E-14
(PID.TID 0000.0001) // =======================================================
(PID.TID 0000.0001) // Begin MONITOR dynamic field statistics
(PID.TID 0000.0001) // =======================================================
(PID.TID 0000.0001) %MON time_tsnumber                =                    63
(PID.TID 0000.0001) %MON time_secondsf                =   2.7216000000000E+06
(PID.TID 0000.0001) %MON dynstat_eta_max              =   1.4386674102445E+00
(PID.TID 0000.0001) %MON dynstat_eta_min              =  -1.2832394786326E+00
(PID.TID 0000.0001) %MON dynstat_eta_mean             =   1.8420984023570E-16
(PID.TID 0000.0001) %MON dynstat_eta_sd               =   4.2016060505664E-01
(PID.TID 0000.0001) %MON dynstat_eta_del2             =   1.9618486044406E-02
(PID.TID 0000.0001) %MON dynstat_uvel_max             =   2.0549297833492E-01
(PID.TID 0000.0001) %MON dynstat_uvel_min             =  -1.8399665096220E-01
(PID.TID 0000.0001) %MON dynstat_uvel_mean            =  -4.1244613776624E-04
(PID.TID 0000.0001) %MON dynstat_uvel_sd              =   1.8217927281751E-02
(PID.TID 0000.0001) %MON dynstat_uvel_del2            =   5.1547417078815E-03
(PID.TID 0000.0001) %MON dynstat_vvel_max             =   1.6652454218929E-01
(PID.TID 0000.0001) %MON dynstat_vvel_min             =  -1.4475242649861E-01
(PID.TID 0000.0001) %MON dynstat_vvel_mean            =  -2.0185945738331E-03
(PID.TID 0000.0001) %MON dynstat_vvel_sd              =   1.5168183836250E-02
(PID.TID 0000.0001) %MON dynstat_vvel_del2            =   4.7308190276448E-03
(PID.TID 0000.0001) %MON dynstat_wvel_max             =   3.4685627952316E-04
(PID.TID 0000.0001) %MON dynstat_wvel_min             =  -2.1072969515045E-04
(PID.TID 0000.0001) %MON dynstat_wvel_mean            =  -2.7412265967486E-22
(PID.TID 0000.0001) %MON dynstat_wvel_sd              =   2.6063619640874E-05
(PID.TID 0000.0001) %MON dynstat_wvel_del2            =   1.0359408447686E-05
(PID.TID 0000.0001) %MON dynstat_theta_max            =   2.9810616094073E+01
(PID.TID 0000.0001) %MON dynstat_theta_min            =  -1.9607548179332E+00
(PID.TID 0000.0001) %MON dynstat_theta_mean           =   3.5921203483978E+00
(PID.TID 0000.0001) %MON dynstat_theta_sd             =   4.3415235219856E+00
(PID.TID 0000.0001) %MON dynstat_theta_del2           =   1.3070862307405E-01
(PID.TID 0000.0001) %MON dynstat_salt_max             =   3.7390098572034E+01
(PID.TID 0000.0001) %MON dynstat_salt_min             =   2.9791162801675E+01
(PID.TID 0000.0001) %MON dynstat_salt_mean            =   3.4716197917039E+01
(PID.TID 0000.0001) %MON dynstat_salt_sd              =   2.9390036951669E-01
(PID.TID 0000.0001) %MON dynstat_salt_del2            =   2.3899617421819E-02
(PID.TID 0000.0001) %MON advcfl_uvel_max              =   3.7669879804335E-02
(PID.TID 0000.0001) %MON advcfl_vvel_max              =   1.6176523907406E-02
(PID.TID 0000.0001) %MON advcfl_wvel_max              =   1.6942747911571E-01
(PID.TID 0000.0001) %MON advcfl_W_hf_max              =   1.5280479794472E-01
(PID.TID 0000.0001) %MON pe_b_mean                    =   2.2589772636151E-04
(PID.TID 0000.0001) %MON ke_max                       =   1.9661756620660E-02
(PID.TID 0000.0001) %MON ke_mean                      =   2.5598077758028E-04
(PID.TID 0000.0001) %MON ke_vol                       =   1.3226782436723E+18
(PID.TID 0000.0001) %MON vort_r_min                   =  -1.1047120436559E-06
(PID.TID 0000.0001) %MON vort_r_max                   =   7.0918213806976E-07
(PID.TID 0000.0001) %MON vort_a_mean                  =  -2.5205768417634E-05
(PID.TID 0000.0001) %MON vort_a_sd                    =   7.3403301747284E-05
(PID.TID 0000.0001) %MON vort_p_mean                  =  -3.1758668327979E-05
(PID.TID 0000.0001) %MON vort_p_sd                    =   1.3126315695890E-04
(PID.TID 0000.0001) %MON surfExpan_theta_mean         =   1.2005711518806E-05
(PID.TID 0000.0001) %MON surfExpan_salt_mean          =   2.2564129024060E-07
(PID.TID 0000.0001) // =======================================================
(PID.TID 0000.0001) // End MONITOR dynamic field statistics
(PID.TID 0000.0001) // =======================================================
time,SST,SSS,fu,fv,Q,E-P,i0,i1,a,b =   2.7216E+06  1.3877E-01  3.4553E+01 -2.3974E-02 -3.5465E-02  2.5186E+02  0.0000E+00     1     2  5.5000E-01  4.5000E-01
time,fu0,fu1,fu =   2.7216E+06 -3.5633E-02 -1.4435E-02 -2.3974E-02  5.5000E-01  4.5000E-01
 cg2d: Sum(rhs),rhsMax =   3.57866514200111E-13  1.23086920671758E+01
(PID.TID 0000.0001)                    cg2d_init_res =    3.11872199330043E-01
(PID.TID 0000.0001)                       cg2d_iters =    24
(PID.TID 0000.0001)                         cg2d_res =    5.25836838468284E-14
(PID.TID 0000.0001) // =======================================================
(PID.TID 0000.0001) // Begin MONITOR dynamic field statistics
(PID.TID 0000.0001) // =======================================================
(PID.TID 0000.0001) %MON time_tsnumber                =                    64
(PID.TID 0000.0001) %MON time_secondsf                =   2.7648000000000E+06
(PID.TID 0000.0001) %MON dynstat_eta_max              =   1.4548492100320E+00
(PID.TID 0000.0001) %MON dynstat_eta_min              =  -1.3064234590040E+00
(PID.TID 0000.0001) %MON dynstat_eta_mean             =   2.0114422321494E-16
(PID.TID 0000.0001) %MON dynstat_eta_sd               =   4.2152467879824E-01
(PID.TID 0000.0001) %MON dynstat_eta_del2             =   1.9762616671295E-02
(PID.TID 0000.0001) %MON dynstat_uvel_max             =   2.0550748311650E-01
(PID.TID 0000.0001) %MON dynstat_uvel_min             =  -1.8141444101228E-01
(PID.TID 0000.0001) %MON dynstat_uvel_mean            =  -2.9328010062154E-04
(PID.TID 0000.0001) %MON dynstat_uvel_sd              =   1.8426292044424E-02
(PID.TID 0000.0001) %MON dynstat_uvel_del2            =   5.1418335910030E-03
(PID.TID 0000.0001) %MON dynstat_vvel_max             =   1.6988862549833E-01
(PID.TID 0000.0001) %MON dynstat_vvel_min             =  -1.4524916158289E-01
(PID.TID 0000.0001) %MON dynstat_vvel_mean            =  -2.0900161989498E-03
(PID.TID 0000.0001) %MON dynstat_vvel_sd              =   1.5173031856201E-02
(PID.TID 0000.0001) %MON dynstat_vvel_del2            =   4.7108674784222E-03
(PID.TID 0000.0001) %MON dynstat_wvel_max             =   3.4995850806275E-04
(PID.TID 0000.0001) %MON dynstat_wvel_min             =  -2.0727822238289E-04
(PID.TID 0000.0001) %MON dynstat_wvel_mean            =  -8.1241004499092E-23
(PID.TID 0000.0001) %MON dynstat_wvel_sd              =   2.5861024584674E-05
(PID.TID 0000.0001) %MON dynstat_wvel_del2            =   1.0258136940334E-05
(PID.TID 0000.0001) %MON dynstat_theta_max            =   2.9777679256831E+01
(PID.TID 0000.0001) %MON dynstat_theta_min            =  -1.9606758403209E+00
(PID.TID 0000.0001) %MON dynstat_theta_mean           =   3.5920221784527E+00
(PID.TID 0000.0001) %MON dynstat_theta_sd             =   4.3412684909104E+00
(PID.TID 0000.0001) %MON dynstat_theta_del2           =   1.3056902647131E-01
(PID.TID 0000.0001) %MON dynstat_salt_max             =   3.7390377814590E+01
(PID.TID 0000.0001) %MON dynstat_salt_min             =   2.9789784279262E+01
(PID.TID 0000.0001) %MON dynstat_salt_mean            =   3.4716191817569E+01
(PID.TID 0000.0001) %MON dynstat_salt_sd              =   2.9392670739251E-01
(PID.TID 0000.0001) %MON dynstat_salt_del2            =   2.3861567804713E-02
(PID.TID 0000.0001) %MON advcfl_uvel_max              =   3.7672538743745E-02
(PID.TID 0000.0001) %MON advcfl_vvel_max              =   1.6503317624175E-02
(PID.TID 0000.0001) %MON advcfl_wvel_max              =   1.4718383074086E-01
(PID.TID 0000.0001) %MON advcfl_W_hf_max              =   1.3220220373304E-01
(PID.TID 0000.0001) %MON pe_b_mean                    =   2.2736688530420E-04
(PID.TID 0000.0001) %MON ke_max                       =   1.9461174813464E-02
(PID.TID 0000.0001) %MON ke_mean                      =   2.5960920877707E-04
(PID.TID 0000.0001) %MON ke_vol                       =   1.3226782436723E+18
(PID.TID 0000.0001) %MON vort_r_min                   =  -1.1047051683601E-06
(PID.TID 0000.0001) %MON vort_r_max                   =   7.0703376521957E-07
(PID.TID 0000.0001) %MON vort_a_mean                  =  -2.5205768382151E-05
(PID.TID 0000.0001) %MON vort_a_sd                    =   7.3403323718865E-05
(PID.TID 0000.0001) %MON vort_p_mean                  =  -3.1758668283271E-05
(PID.TID 0000.0001) %MON vort_p_sd                    =   1.3126311738984E-04
(PID.TID 0000.0001) %MON surfExpan_theta_mean         =   1.2534720887565E-05
(PID.TID 0000.0001) %MON surfExpan_salt_mean          =   4.1247816603957E-07
(PID.TID 0000.0001) // =======================================================
(PID.TID 0000.0001) // End MONITOR dynamic field statistics
(PID.TID 0000.0001) // =======================================================
time,SST,SSS,fu,fv,Q,E-P,i0,i1,a,b =   2.7648E+06  1.1393E-01  3.4548E+01 -2.3621E-02 -3.4805E-02  2.5144E+02  0.0000E+00     1     2  5.6667E-01  4.3333E-01
time,fu0,fu1,fu =   2.7648E+06 -3.5633E-02 -1.4435E-02 -2.3621E-02  5.6667E-01  4.3333E-01
 cg2d: Sum(rhs),rhsMax =   9.12186992607644E-14  1.23029136136035E+01
(PID.TID 0000.0001)                    cg2d_init_res =    3.07221086862308E-01
(PID.TID 0000.0001)                       cg2d_iters =    24
(PID.TID 0000.0001)                         cg2d_res =    4.72426036946935E-14
(PID.TID 0000.0001) // =======================================================
(PID.TID 0000.0001) // Begin MONITOR dynamic field statistics
(PID.TID 0000.0001) // =======================================================
(PID.TID 0000.0001) %MON time_tsnumber                =                    65
(PID.TID 0000.0001) %MON time_secondsf                =   2.8080000000000E+06
(PID.TID 0000.0001) %MON dynstat_eta_max              =   1.4542402524775E+00
(PID.TID 0000.0001) %MON dynstat_eta_min              =  -1.3379469097458E+00
(PID.TID 0000.0001) %MON dynstat_eta_mean             =   1.4094681550428E-16
(PID.TID 0000.0001) %MON dynstat_eta_sd               =   4.2289205480198E-01
(PID.TID 0000.0001) %MON dynstat_eta_del2             =   1.9834671619891E-02
(PID.TID 0000.0001) %MON dynstat_uvel_max             =   2.0385089097215E-01
(PID.TID 0000.0001) %MON dynstat_uvel_min             =  -1.7867979366452E-01
(PID.TID 0000.0001) %MON dynstat_uvel_mean            =  -1.8095091644013E-04
(PID.TID 0000.0001) %MON dynstat_uvel_sd              =   1.8626068514227E-02
(PID.TID 0000.0001) %MON dynstat_uvel_del2            =   5.1298553349013E-03
(PID.TID 0000.0001) %MON dynstat_vvel_max             =   1.7292136101282E-01
(PID.TID 0000.0001) %MON dynstat_vvel_min             =  -1.4561088251064E-01
(PID.TID 0000.0001) %MON dynstat_vvel_mean            =  -2.1378381407930E-03
(PID.TID 0000.0001) %MON dynstat_vvel_sd              =   1.5179654536788E-02
(PID.TID 0000.0001) %MON dynstat_vvel_del2            =   4.6932743736410E-03
(PID.TID 0000.0001) %MON dynstat_wvel_max             =   3.5291165733713E-04
(PID.TID 0000.0001) %MON dynstat_wvel_min             =  -2.1148387715340E-04
(PID.TID 0000.0001) %MON dynstat_wvel_mean            =  -2.1228113553723E-22
(PID.TID 0000.0001) %MON dynstat_wvel_sd              =   2.5669947065236E-05
(PID.TID 0000.0001) %MON dynstat_wvel_del2            =   1.0162318399793E-05
(PID.TID 0000.0001) %MON dynstat_theta_max            =   2.9733636887700E+01
(PID.TID 0000.0001) %MON dynstat_theta_min            =  -1.9603754023161E+00
(PID.TID 0000.0001) %MON dynstat_theta_mean           =   3.5919180551930E+00
(PID.TID 0000.0001) %MON dynstat_theta_sd             =   4.3409996581464E+00
(PID.TID 0000.0001) %MON dynstat_theta_del2           =   1.3041215247432E-01
(PID.TID 0000.0001) %MON dynstat_salt_max             =   3.7390656914059E+01
(PID.TID 0000.0001) %MON dynstat_salt_min             =   2.9788328476636E+01
(PID.TID 0000.0001) %MON dynstat_salt_mean            =   3.4716183734390E+01
(PID.TID 0000.0001) %MON dynstat_salt_sd              =   2.9394886464236E-01
(PID.TID 0000.0001) %MON dynstat_salt_del2            =   2.3822183260139E-02
(PID.TID 0000.0001) %MON advcfl_uvel_max              =   3.7368861082989E-02
(PID.TID 0000.0001) %MON advcfl_vvel_max              =   1.6797923559793E-02
(PID.TID 0000.0001) %MON advcfl_wvel_max              =   1.2111797176281E-01
(PID.TID 0000.0001) %MON advcfl_W_hf_max              =   1.0807192117254E-01
(PID.TID 0000.0001) %MON pe_b_mean                    =   2.2884438018676E-04
(PID.TID 0000.0001) %MON ke_max                       =   1.9223527119064E-02
(PID.TID 0000.0001) %MON ke_mean                      =   2.6312894855832E-04
(PID.TID 0000.0001) %MON ke_vol                       =   1.3226782436723E+18
(PID.TID 0000.0001) %MON vort_r_min                   =  -1.1030553872001E-06
(PID.TID 0000.0001) %MON vort_r_max                   =   7.0359206136036E-07
(PID.TID 0000.0001) %MON vort_a_mean                  =  -2.5205768344929E-05
(PID.TID 0000.0001) %MON vort_a_sd                    =   7.3403344280128E-05
(PID.TID 0000.0001) %MON vort_p_mean                  =  -3.1758668236372E-05
(PID.TID 0000.0001) %MON vort_p_sd                    =   1.3126307689389E-04
(PID.TID 0000.0001) %MON surfExpan_theta_mean         =   1.3058352156302E-05
(PID.TID 0000.0001) %MON surfExpan_salt_mean          =   5.9275509931028E-07
(PID.TID 0000.0001) // =======================================================
(PID.TID 0000.0001) // End MONITOR dynamic field statistics
(PID.TID 0000.0001) // =======================================================
time,SST,SSS,fu,fv,Q,E-P,i0,i1,a,b =   2.8080E+06  8.9094E-02  3.4543E+01 -2.3267E-02 -3.4144E-02  2.5102E+02  0.0000E+00     1     2  5.8333E-01  4.1667E-01
time,fu0,fu1,fu =   2.8080E+06 -3.5633E-02 -1.4435E-02 -2.3267E-02  5.8333E-01  4.1667E-01
 cg2d: Sum(rhs),rhsMax =   4.65141813954517E-13  1.21609676831740E+01
(PID.TID 0000.0001)                    cg2d_init_res =    3.10461837373357E-01
(PID.TID 0000.0001)                       cg2d_iters =    24
(PID.TID 0000.0001)                         cg2d_res =    3.88300514742278E-14
(PID.TID 0000.0001) // =======================================================
(PID.TID 0000.0001) // Begin MONITOR dynamic field statistics
(PID.TID 0000.0001) // =======================================================
(PID.TID 0000.0001) %MON time_tsnumber                =                    66
(PID.TID 0000.0001) %MON time_secondsf                =   2.8512000000000E+06
(PID.TID 0000.0001) %MON dynstat_eta_max              =   1.4377616248397E+00
(PID.TID 0000.0001) %MON dynstat_eta_min              =  -1.3655339972515E+00
(PID.TID 0000.0001) %MON dynstat_eta_mean             =  -1.9983697534562E-17
(PID.TID 0000.0001) %MON dynstat_eta_sd               =   4.2424336024867E-01
(PID.TID 0000.0001) %MON dynstat_eta_del2             =   1.9832240697565E-02
(PID.TID 0000.0001) %MON dynstat_uvel_max             =   2.0054285042159E-01
(PID.TID 0000.0001) %MON dynstat_uvel_min             =  -1.7579968258506E-01
(PID.TID 0000.0001) %MON dynstat_uvel_mean            =  -7.5553355044037E-05
(PID.TID 0000.0001) %MON dynstat_uvel_sd              =   1.8811006163840E-02
(PID.TID 0000.0001) %MON dynstat_uvel_del2            =   5.1192998482248E-03
(PID.TID 0000.0001) %MON dynstat_vvel_max             =   1.7561326412999E-01
(PID.TID 0000.0001) %MON dynstat_vvel_min             =  -1.4693264671880E-01
(PID.TID 0000.0001) %MON dynstat_vvel_mean            =  -2.1633089845066E-03
(PID.TID 0000.0001) %MON dynstat_vvel_sd              =   1.5191227361950E-02
(PID.TID 0000.0001) %MON dynstat_vvel_del2            =   4.6775978658857E-03
(PID.TID 0000.0001) %MON dynstat_wvel_max             =   3.5572506203277E-04
(PID.TID 0000.0001) %MON dynstat_wvel_min             =  -2.1749036944858E-04
(PID.TID 0000.0001) %MON dynstat_wvel_mean            =   4.0537542308592E-22
(PID.TID 0000.0001) %MON dynstat_wvel_sd              =   2.5493669149768E-05
(PID.TID 0000.0001) %MON dynstat_wvel_del2            =   1.0076283380940E-05
(PID.TID 0000.0001) %MON dynstat_theta_max            =   2.9699318253048E+01
(PID.TID 0000.0001) %MON dynstat_theta_min            =  -1.9598446651294E+00
(PID.TID 0000.0001) %MON dynstat_theta_mean           =   3.5918083350912E+00
(PID.TID 0000.0001) %MON dynstat_theta_sd             =   4.3407156441715E+00
(PID.TID 0000.0001) %MON dynstat_theta_del2           =   1.3024427344109E-01
(PID.TID 0000.0001) %MON dynstat_salt_max             =   3.7390942590798E+01
(PID.TID 0000.0001) %MON dynstat_salt_min             =   2.9786797146076E+01
(PID.TID 0000.0001) %MON dynstat_salt_mean            =   3.4716173851476E+01
(PID.TID 0000.0001) %MON dynstat_salt_sd              =   2.9396613828898E-01
(PID.TID 0000.0001) %MON dynstat_salt_del2            =   2.3785219480765E-02
(PID.TID 0000.0001) %MON advcfl_uvel_max              =   3.6762448684195E-02
(PID.TID 0000.0001) %MON advcfl_vvel_max              =   1.7059420361159E-02
(PID.TID 0000.0001) %MON advcfl_wvel_max              =   1.0320077040958E-01
(PID.TID 0000.0001) %MON advcfl_W_hf_max              =   1.0377037786733E-01
(PID.TID 0000.0001) %MON pe_b_mean                    =   2.3030921133258E-04
(PID.TID 0000.0001) %MON ke_max                       =   1.8949991118124E-02
(PID.TID 0000.0001) %MON ke_mean                      =   2.6646910508709E-04
(PID.TID 0000.0001) %MON ke_vol                       =   1.3226782436723E+18
(PID.TID 0000.0001) %MON vort_r_min                   =  -1.0997215230538E-06
(PID.TID 0000.0001) %MON vort_r_max                   =   6.9886585069470E-07
(PID.TID 0000.0001) %MON vort_a_mean                  =  -2.5205768306277E-05
(PID.TID 0000.0001) %MON vort_a_sd                    =   7.3403363392909E-05
(PID.TID 0000.0001) %MON vort_p_mean                  =  -3.1758668187671E-05
(PID.TID 0000.0001) %MON vort_p_sd                    =   1.3126303649819E-04
(PID.TID 0000.0001) %MON surfExpan_theta_mean         =   1.3556382870531E-05
(PID.TID 0000.0001) %MON surfExpan_salt_mean          =   7.5965605428537E-07
(PID.TID 0000.0001) // =======================================================
(PID.TID 0000.0001) // End MONITOR dynamic field statistics
(PID.TID 0000.0001) // =======================================================
time,SST,SSS,fu,fv,Q,E-P,i0,i1,a,b =   2.8512E+06  6.4256E-02  3.4538E+01 -2.2914E-02 -3.3484E-02  2.5060E+02  0.0000E+00     1     2  6.0000E-01  4.0000E-01
time,fu0,fu1,fu =   2.8512E+06 -3.5633E-02 -1.4435E-02 -2.2914E-02  6.0000E-01  4.0000E-01
 cg2d: Sum(rhs),rhsMax =   5.72181191316190E-14  1.18939190533289E+01
(PID.TID 0000.0001)                    cg2d_init_res =    3.21493079042096E-01
(PID.TID 0000.0001)                       cg2d_iters =    24
(PID.TID 0000.0001)                         cg2d_res =    4.58719674339378E-14
(PID.TID 0000.0001) // =======================================================
(PID.TID 0000.0001) // Begin MONITOR dynamic field statistics
(PID.TID 0000.0001) // =======================================================
(PID.TID 0000.0001) %MON time_tsnumber                =                    67
(PID.TID 0000.0001) %MON time_secondsf                =   2.8944000000000E+06
(PID.TID 0000.0001) %MON dynstat_eta_max              =   1.4066956526803E+00
(PID.TID 0000.0001) %MON dynstat_eta_min              =  -1.3881090794468E+00
(PID.TID 0000.0001) %MON dynstat_eta_mean             =   9.4973416003074E-17
(PID.TID 0000.0001) %MON dynstat_eta_sd               =   4.2557305956794E-01
(PID.TID 0000.0001) %MON dynstat_eta_del2             =   1.9804771405826E-02
(PID.TID 0000.0001) %MON dynstat_uvel_max             =   1.9562543602581E-01
(PID.TID 0000.0001) %MON dynstat_uvel_min             =  -1.7278029946438E-01
(PID.TID 0000.0001) %MON dynstat_uvel_mean            =   2.2985305597532E-05
(PID.TID 0000.0001) %MON dynstat_uvel_sd              =   1.8975311432736E-02
(PID.TID 0000.0001) %MON dynstat_uvel_del2            =   5.1096803205321E-03
(PID.TID 0000.0001) %MON dynstat_vvel_max             =   1.7795511302019E-01
(PID.TID 0000.0001) %MON dynstat_vvel_min             =  -1.4879467221122E-01
(PID.TID 0000.0001) %MON dynstat_vvel_mean            =  -2.1679482127222E-03
(PID.TID 0000.0001) %MON dynstat_vvel_sd              =   1.5209786474306E-02
(PID.TID 0000.0001) %MON dynstat_vvel_del2            =   4.6646029002244E-03
(PID.TID 0000.0001) %MON dynstat_wvel_max             =   3.5840526969357E-04
(PID.TID 0000.0001) %MON dynstat_wvel_min             =  -2.2538061917867E-04
(PID.TID 0000.0001) %MON dynstat_wvel_mean            =   1.7028495024898E-22
(PID.TID 0000.0001) %MON dynstat_wvel_sd              =   2.5333197359252E-05
(PID.TID 0000.0001) %MON dynstat_wvel_del2            =   9.9988338161991E-06
(PID.TID 0000.0001) %MON dynstat_theta_max            =   2.9701264035045E+01
(PID.TID 0000.0001) %MON dynstat_theta_min            =  -1.9590768640291E+00
(PID.TID 0000.0001) %MON dynstat_theta_mean           =   3.5916935662868E+00
(PID.TID 0000.0001) %MON dynstat_theta_sd             =   4.3404167187382E+00
(PID.TID 0000.0001) %MON dynstat_theta_del2           =   1.3006771969351E-01
(PID.TID 0000.0001) %MON dynstat_salt_max             =   3.7391239057255E+01
(PID.TID 0000.0001) %MON dynstat_salt_min             =   2.9785193399526E+01
(PID.TID 0000.0001) %MON dynstat_salt_mean            =   3.4716162417927E+01
(PID.TID 0000.0001) %MON dynstat_salt_sd              =   2.9397893034150E-01
(PID.TID 0000.0001) %MON dynstat_salt_del2            =   2.3750722707497E-02
(PID.TID 0000.0001) %MON advcfl_uvel_max              =   3.5861014432095E-02
(PID.TID 0000.0001) %MON advcfl_vvel_max              =   1.7286912201471E-02
(PID.TID 0000.0001) %MON advcfl_wvel_max              =   1.1758841634940E-01
(PID.TID 0000.0001) %MON advcfl_W_hf_max              =   1.1884110137070E-01
(PID.TID 0000.0001) %MON pe_b_mean                    =   2.3175518293767E-04
(PID.TID 0000.0001) %MON ke_max                       =   1.8641792211828E-02
(PID.TID 0000.0001) %MON ke_mean                      =   2.6954968533987E-04
(PID.TID 0000.0001) %MON ke_vol                       =   1.3226782436723E+18
(PID.TID 0000.0001) %MON vort_r_min                   =  -1.0946760430804E-06
(PID.TID 0000.0001) %MON vort_r_max                   =   6.9286640282908E-07
(PID.TID 0000.0001) %MON vort_a_mean                  =  -2.5205768266577E-05
(PID.TID 0000.0001) %MON vort_a_sd                    =   7.3403381056421E-05
(PID.TID 0000.0001) %MON vort_p_mean                  =  -3.1758668137650E-05
(PID.TID 0000.0001) %MON vort_p_sd                    =   1.3126299718679E-04
(PID.TID 0000.0001) %MON surfExpan_theta_mean         =   1.4015556517097E-05
(PID.TID 0000.0001) %MON surfExpan_salt_mean          =   9.0867652857120E-07
(PID.TID 0000.0001) // =======================================================
(PID.TID 0000.0001) // End MONITOR dynamic field statistics
(PID.TID 0000.0001) // =======================================================
time,SST,SSS,fu,fv,Q,E-P,i0,i1,a,b =   2.8944E+06  3.9418E-02  3.4534E+01 -2.2561E-02 -3.2824E-02  2.5018E+02  0.0000E+00     1     2  6.1667E-01  3.8333E-01
time,fu0,fu1,fu =   2.8944E+06 -3.5633E-02 -1.4435E-02 -2.2561E-02  6.1667E-01  3.8333E-01
 cg2d: Sum(rhs),rhsMax =  -1.93178806284777E-13  1.15154296889848E+01
(PID.TID 0000.0001)                    cg2d_init_res =    3.39778988726950E-01
(PID.TID 0000.0001)                       cg2d_iters =    24
(PID.TID 0000.0001)                         cg2d_res =    5.74832803042998E-14
(PID.TID 0000.0001) // =======================================================
(PID.TID 0000.0001) // Begin MONITOR dynamic field statistics
(PID.TID 0000.0001) // =======================================================
(PID.TID 0000.0001) %MON time_tsnumber                =                    68
(PID.TID 0000.0001) %MON time_secondsf                =   2.9376000000000E+06
(PID.TID 0000.0001) %MON dynstat_eta_max              =   1.3626275770859E+00
(PID.TID 0000.0001) %MON dynstat_eta_min              =  -1.4049130372172E+00
(PID.TID 0000.0001) %MON dynstat_eta_mean             =  -1.2764333650782E-16
(PID.TID 0000.0001) %MON dynstat_eta_sd               =   4.2688883158136E-01
(PID.TID 0000.0001) %MON dynstat_eta_del2             =   1.9752776440893E-02
(PID.TID 0000.0001) %MON dynstat_uvel_max             =   1.8916598557350E-01
(PID.TID 0000.0001) %MON dynstat_uvel_min             =  -1.6966049749401E-01
(PID.TID 0000.0001) %MON dynstat_uvel_mean            =   1.1487606792874E-04
(PID.TID 0000.0001) %MON dynstat_uvel_sd              =   1.9113900738738E-02
(PID.TID 0000.0001) %MON dynstat_uvel_del2            =   5.1014016773819E-03
(PID.TID 0000.0001) %MON dynstat_vvel_max             =   1.7993808617265E-01
(PID.TID 0000.0001) %MON dynstat_vvel_min             =  -1.5045538842593E-01
(PID.TID 0000.0001) %MON dynstat_vvel_mean            =  -2.1535017443844E-03
(PID.TID 0000.0001) %MON dynstat_vvel_sd              =   1.5236031321030E-02
(PID.TID 0000.0001) %MON dynstat_vvel_del2            =   4.6554272715000E-03
(PID.TID 0000.0001) %MON dynstat_wvel_max             =   3.6095554131150E-04
(PID.TID 0000.0001) %MON dynstat_wvel_min             =  -2.3300937151730E-04
(PID.TID 0000.0001) %MON dynstat_wvel_mean            =   3.9059415054117E-22
(PID.TID 0000.0001) %MON dynstat_wvel_sd              =   2.5187130746541E-05
(PID.TID 0000.0001) %MON dynstat_wvel_del2            =   9.9305898546850E-06
(PID.TID 0000.0001) %MON dynstat_theta_max            =   2.9703577845182E+01
(PID.TID 0000.0001) %MON dynstat_theta_min            =  -1.9580676689696E+00
(PID.TID 0000.0001) %MON dynstat_theta_mean           =   3.5915743988669E+00
(PID.TID 0000.0001) %MON dynstat_theta_sd             =   4.3401011716775E+00
(PID.TID 0000.0001) %MON dynstat_theta_del2           =   1.2989691009494E-01
(PID.TID 0000.0001) %MON dynstat_salt_max             =   3.7391547953331E+01
(PID.TID 0000.0001) %MON dynstat_salt_min             =   2.9783521665126E+01
(PID.TID 0000.0001) %MON dynstat_salt_mean            =   3.4716149706523E+01
(PID.TID 0000.0001) %MON dynstat_salt_sd              =   2.9398490736557E-01
(PID.TID 0000.0001) %MON dynstat_salt_del2            =   2.3712926545949E-02
(PID.TID 0000.0001) %MON advcfl_uvel_max              =   3.4676902331952E-02
(PID.TID 0000.0001) %MON advcfl_vvel_max              =   1.7479542141700E-02
(PID.TID 0000.0001) %MON advcfl_wvel_max              =   1.2992977486672E-01
(PID.TID 0000.0001) %MON advcfl_W_hf_max              =   1.3165139334645E-01
(PID.TID 0000.0001) %MON pe_b_mean                    =   2.3319046354860E-04
(PID.TID 0000.0001) %MON ke_max                       =   1.8418870459915E-02
(PID.TID 0000.0001) %MON ke_mean                      =   2.7228435936259E-04
(PID.TID 0000.0001) %MON ke_vol                       =   1.3226782436723E+18
(PID.TID 0000.0001) %MON vort_r_min                   =  -1.0879015285593E-06
(PID.TID 0000.0001) %MON vort_r_max                   =   6.8560795354961E-07
(PID.TID 0000.0001) %MON vort_a_mean                  =  -2.5205768226265E-05
(PID.TID 0000.0001) %MON vort_a_sd                    =   7.3403397301943E-05
(PID.TID 0000.0001) %MON vort_p_mean                  =  -3.1758668086858E-05
(PID.TID 0000.0001) %MON vort_p_sd                    =   1.3126295986983E-04
(PID.TID 0000.0001) %MON surfExpan_theta_mean         =   1.4408157013597E-05
(PID.TID 0000.0001) %MON surfExpan_salt_mean          =   1.0315071654384E-06
(PID.TID 0000.0001) // =======================================================
(PID.TID 0000.0001) // End MONITOR dynamic field statistics
(PID.TID 0000.0001) // =======================================================
time,SST,SSS,fu,fv,Q,E-P,i0,i1,a,b =   2.9376E+06  1.4580E-02  3.4529E+01 -2.2207E-02 -3.2163E-02  2.4975E+02  0.0000E+00     1     2  6.3333E-01  3.6667E-01
time,fu0,fu1,fu =   2.9376E+06 -3.5633E-02 -1.4435E-02 -2.2207E-02  6.3333E-01  3.6667E-01
 cg2d: Sum(rhs),rhsMax =   1.15546461287863E-13  1.10412058430333E+01
(PID.TID 0000.0001)                    cg2d_init_res =    3.64462189590070E-01
(PID.TID 0000.0001)                       cg2d_iters =    24
(PID.TID 0000.0001)                         cg2d_res =    6.66345060207202E-14
(PID.TID 0000.0001) // =======================================================
(PID.TID 0000.0001) // Begin MONITOR dynamic field statistics
(PID.TID 0000.0001) // =======================================================
(PID.TID 0000.0001) %MON time_tsnumber                =                    69
(PID.TID 0000.0001) %MON time_secondsf                =   2.9808000000000E+06
(PID.TID 0000.0001) %MON dynstat_eta_max              =   1.3073815779502E+00
(PID.TID 0000.0001) %MON dynstat_eta_min              =  -1.4155396926833E+00
(PID.TID 0000.0001) %MON dynstat_eta_mean             =  -1.0640103020169E-16
(PID.TID 0000.0001) %MON dynstat_eta_sd               =   4.2820889809533E-01
(PID.TID 0000.0001) %MON dynstat_eta_del2             =   1.9657955149046E-02
(PID.TID 0000.0001) %MON dynstat_uvel_max             =   1.8660353515152E-01
(PID.TID 0000.0001) %MON dynstat_uvel_min             =  -1.6969136498489E-01
(PID.TID 0000.0001) %MON dynstat_uvel_mean            =   2.0043446991723E-04
(PID.TID 0000.0001) %MON dynstat_uvel_sd              =   1.9222604257407E-02
(PID.TID 0000.0001) %MON dynstat_uvel_del2            =   5.0947190261243E-03
(PID.TID 0000.0001) %MON dynstat_vvel_max             =   1.8155388055148E-01
(PID.TID 0000.0001) %MON dynstat_vvel_min             =  -1.5191169596166E-01
(PID.TID 0000.0001) %MON dynstat_vvel_mean            =  -2.1218933522218E-03
(PID.TID 0000.0001) %MON dynstat_vvel_sd              =   1.5269331658423E-02
(PID.TID 0000.0001) %MON dynstat_vvel_del2            =   4.6490421222441E-03
(PID.TID 0000.0001) %MON dynstat_wvel_max             =   3.6337662317086E-04
(PID.TID 0000.0001) %MON dynstat_wvel_min             =  -2.3934972971314E-04
(PID.TID 0000.0001) %MON dynstat_wvel_mean            =  -7.8287808479855E-22
(PID.TID 0000.0001) %MON dynstat_wvel_sd              =   2.5051937364254E-05
(PID.TID 0000.0001) %MON dynstat_wvel_del2            =   9.8681687294705E-06
(PID.TID 0000.0001) %MON dynstat_theta_max            =   2.9706284662316E+01
(PID.TID 0000.0001) %MON dynstat_theta_min            =  -1.9568141952878E+00
(PID.TID 0000.0001) %MON dynstat_theta_mean           =   3.5914517619835E+00
(PID.TID 0000.0001) %MON dynstat_theta_sd             =   4.3397740762849E+00
(PID.TID 0000.0001) %MON dynstat_theta_del2           =   1.2971304298078E-01
(PID.TID 0000.0001) %MON dynstat_salt_max             =   3.7391868448907E+01
(PID.TID 0000.0001) %MON dynstat_salt_min             =   2.9781787517477E+01
(PID.TID 0000.0001) %MON dynstat_salt_mean            =   3.4716136086534E+01
(PID.TID 0000.0001) %MON dynstat_salt_sd              =   2.9398816104298E-01
(PID.TID 0000.0001) %MON dynstat_salt_del2            =   2.3679880249906E-02
(PID.TID 0000.0001) %MON advcfl_uvel_max              =   3.3226297631943E-02
(PID.TID 0000.0001) %MON advcfl_vvel_max              =   1.7636503608490E-02
(PID.TID 0000.0001) %MON advcfl_wvel_max              =   1.4049410418900E-01
(PID.TID 0000.0001) %MON advcfl_W_hf_max              =   1.4191448093785E-01
(PID.TID 0000.0001) %MON pe_b_mean                    =   2.3463488113668E-04
(PID.TID 0000.0001) %MON ke_max                       =   1.8358787536135E-02
(PID.TID 0000.0001) %MON ke_mean                      =   2.7458527405256E-04
(PID.TID 0000.0001) %MON ke_vol                       =   1.3226782436723E+18
(PID.TID 0000.0001) %MON vort_r_min                   =  -1.0794037784456E-06
(PID.TID 0000.0001) %MON vort_r_max                   =   6.7710802271421E-07
(PID.TID 0000.0001) %MON vort_a_mean                  =  -2.5205768185821E-05
(PID.TID 0000.0001) %MON vort_a_sd                    =   7.3403412186143E-05
(PID.TID 0000.0001) %MON vort_p_mean                  =  -3.1758668035899E-05
(PID.TID 0000.0001) %MON vort_p_sd                    =   1.3126292533626E-04
(PID.TID 0000.0001) %MON surfExpan_theta_mean         =   1.4756043866865E-05
(PID.TID 0000.0001) %MON surfExpan_salt_mean          =   1.1334711201737E-06
(PID.TID 0000.0001) // =======================================================
(PID.TID 0000.0001) // End MONITOR dynamic field statistics
(PID.TID 0000.0001) // =======================================================
time,SST,SSS,fu,fv,Q,E-P,i0,i1,a,b =   2.9808E+06 -1.0258E-02  3.4524E+01 -2.1854E-02 -3.1503E-02  2.4933E+02  0.0000E+00     1     2  6.5000E-01  3.5000E-01
time,fu0,fu1,fu =   2.9808E+06 -3.5633E-02 -1.4435E-02 -2.1854E-02  6.5000E-01  3.5000E-01
 cg2d: Sum(rhs),rhsMax =  -8.00054467120503E-14  1.04884334152276E+01
(PID.TID 0000.0001)                    cg2d_init_res =    3.94529878524041E-01
(PID.TID 0000.0001)                       cg2d_iters =    24
(PID.TID 0000.0001)                         cg2d_res =    7.47434060550797E-14
(PID.TID 0000.0001) // =======================================================
(PID.TID 0000.0001) // Begin MONITOR dynamic field statistics
(PID.TID 0000.0001) // =======================================================
(PID.TID 0000.0001) %MON time_tsnumber                =                    70
(PID.TID 0000.0001) %MON time_secondsf                =   3.0240000000000E+06
(PID.TID 0000.0001) %MON dynstat_eta_max              =   1.2429553047177E+00
(PID.TID 0000.0001) %MON dynstat_eta_min              =  -1.4199460183839E+00
(PID.TID 0000.0001) %MON dynstat_eta_mean             =   1.5732209932714E-16
(PID.TID 0000.0001) %MON dynstat_eta_sd               =   4.2955783894132E-01
(PID.TID 0000.0001) %MON dynstat_eta_del2             =   1.9560099088004E-02
(PID.TID 0000.0001) %MON dynstat_uvel_max             =   1.8460468937682E-01
(PID.TID 0000.0001) %MON dynstat_uvel_min             =  -1.6954834252087E-01
(PID.TID 0000.0001) %MON dynstat_uvel_mean            =   2.8004437168013E-04
(PID.TID 0000.0001) %MON dynstat_uvel_sd              =   1.9298301705965E-02
(PID.TID 0000.0001) %MON dynstat_uvel_del2            =   5.0883548201738E-03
(PID.TID 0000.0001) %MON dynstat_vvel_max             =   1.8279488125575E-01
(PID.TID 0000.0001) %MON dynstat_vvel_min             =  -1.5316326185391E-01
(PID.TID 0000.0001) %MON dynstat_vvel_mean            =  -2.0751667881194E-03
(PID.TID 0000.0001) %MON dynstat_vvel_sd              =   1.5307926045040E-02
(PID.TID 0000.0001) %MON dynstat_vvel_del2            =   4.6456659826468E-03
(PID.TID 0000.0001) %MON dynstat_wvel_max             =   3.6566803778882E-04
(PID.TID 0000.0001) %MON dynstat_wvel_min             =  -2.4433601457898E-04
(PID.TID 0000.0001) %MON dynstat_wvel_mean            =  -8.8001781235433E-22
(PID.TID 0000.0001) %MON dynstat_wvel_sd              =   2.4922578511866E-05
(PID.TID 0000.0001) %MON dynstat_wvel_del2            =   9.8128653995184E-06
(PID.TID 0000.0001) %MON dynstat_theta_max            =   2.9709395217071E+01
(PID.TID 0000.0001) %MON dynstat_theta_min            =  -1.9553075529499E+00
(PID.TID 0000.0001) %MON dynstat_theta_mean           =   3.5913261754233E+00
(PID.TID 0000.0001) %MON dynstat_theta_sd             =   4.3394364379630E+00
(PID.TID 0000.0001) %MON dynstat_theta_del2           =   1.2954581907580E-01
(PID.TID 0000.0001) %MON dynstat_salt_max             =   3.7392197524659E+01
(PID.TID 0000.0001) %MON dynstat_salt_min             =   2.9779997430230E+01
(PID.TID 0000.0001) %MON dynstat_salt_mean            =   3.4716121782268E+01
(PID.TID 0000.0001) %MON dynstat_salt_sd              =   2.9398740997398E-01
(PID.TID 0000.0001) %MON dynstat_salt_del2            =   2.3646930292849E-02
(PID.TID 0000.0001) %MON advcfl_uvel_max              =   3.2140128192945E-02
(PID.TID 0000.0001) %MON advcfl_vvel_max              =   1.7757056875281E-02
(PID.TID 0000.0001) %MON advcfl_wvel_max              =   1.4825598950021E-01
(PID.TID 0000.0001) %MON advcfl_W_hf_max              =   1.4941470664873E-01
(PID.TID 0000.0001) %MON pe_b_mean                    =   2.3611550009664E-04
(PID.TID 0000.0001) %MON ke_max                       =   1.8284901529062E-02
(PID.TID 0000.0001) %MON ke_mean                      =   2.7636916415825E-04
(PID.TID 0000.0001) %MON ke_vol                       =   1.3226782436723E+18
(PID.TID 0000.0001) %MON vort_r_min                   =  -1.0692128790779E-06
(PID.TID 0000.0001) %MON vort_r_max                   =   6.6738789718409E-07
(PID.TID 0000.0001) %MON vort_a_mean                  =  -2.5205768145873E-05
(PID.TID 0000.0001) %MON vort_a_sd                    =   7.3403425782242E-05
(PID.TID 0000.0001) %MON vort_p_mean                  =  -3.1758667985566E-05
(PID.TID 0000.0001) %MON vort_p_sd                    =   1.3126289422027E-04
(PID.TID 0000.0001) %MON surfExpan_theta_mean         =   1.5039807632043E-05
(PID.TID 0000.0001) %MON surfExpan_salt_mean          =   1.2083381884293E-06
(PID.TID 0000.0001) // =======================================================
(PID.TID 0000.0001) // End MONITOR dynamic field statistics
(PID.TID 0000.0001) // =======================================================
time,SST,SSS,fu,fv,Q,E-P,i0,i1,a,b =   3.0240E+06 -3.5096E-02  3.4519E+01 -2.1501E-02 -3.0843E-02  2.4891E+02  0.0000E+00     1     2  6.6667E-01  3.3333E-01
time,fu0,fu1,fu =   3.0240E+06 -3.5633E-02 -1.4435E-02 -2.1501E-02  6.6667E-01  3.3333E-01
 cg2d: Sum(rhs),rhsMax =  -4.91329199547863E-13  9.87521719790037E+00
(PID.TID 0000.0001)                    cg2d_init_res =    4.28946601125528E-01
(PID.TID 0000.0001)                       cg2d_iters =    24
(PID.TID 0000.0001)                         cg2d_res =    8.22696188206989E-14
(PID.TID 0000.0001) // =======================================================
(PID.TID 0000.0001) // Begin MONITOR dynamic field statistics
(PID.TID 0000.0001) // =======================================================
(PID.TID 0000.0001) %MON time_tsnumber                =                    71
(PID.TID 0000.0001) %MON time_secondsf                =   3.0672000000000E+06
(PID.TID 0000.0001) %MON dynstat_eta_max              =   1.1714547690758E+00
(PID.TID 0000.0001) %MON dynstat_eta_min              =  -1.4184362460324E+00
(PID.TID 0000.0001) %MON dynstat_eta_mean             =   7.9728384034559E-17
(PID.TID 0000.0001) %MON dynstat_eta_sd               =   4.3096164567874E-01
(PID.TID 0000.0001) %MON dynstat_eta_del2             =   1.9434300078203E-02
(PID.TID 0000.0001) %MON dynstat_uvel_max             =   1.8984060719014E-01
(PID.TID 0000.0001) %MON dynstat_uvel_min             =  -1.6923699832708E-01
(PID.TID 0000.0001) %MON dynstat_uvel_mean            =   3.5412372748462E-04
(PID.TID 0000.0001) %MON dynstat_uvel_sd              =   1.9339002919152E-02
(PID.TID 0000.0001) %MON dynstat_uvel_del2            =   5.0814909536412E-03
(PID.TID 0000.0001) %MON dynstat_vvel_max             =   1.8365439572763E-01
(PID.TID 0000.0001) %MON dynstat_vvel_min             =  -1.5421197986344E-01
(PID.TID 0000.0001) %MON dynstat_vvel_mean            =  -2.0154263164247E-03
(PID.TID 0000.0001) %MON dynstat_vvel_sd              =   1.5349249122321E-02
(PID.TID 0000.0001) %MON dynstat_vvel_del2            =   4.6429291210376E-03
(PID.TID 0000.0001) %MON dynstat_wvel_max             =   3.6782925743358E-04
(PID.TID 0000.0001) %MON dynstat_wvel_min             =  -2.4791746122364E-04
(PID.TID 0000.0001) %MON dynstat_wvel_mean            =  -2.3413345618885E-23
(PID.TID 0000.0001) %MON dynstat_wvel_sd              =   2.4793352223643E-05
(PID.TID 0000.0001) %MON dynstat_wvel_del2            =   9.7619511568606E-06
(PID.TID 0000.0001) %MON dynstat_theta_max            =   2.9712907427764E+01
(PID.TID 0000.0001) %MON dynstat_theta_min            =  -1.9532593172822E+00
(PID.TID 0000.0001) %MON dynstat_theta_mean           =   3.5911985496826E+00
(PID.TID 0000.0001) %MON dynstat_theta_sd             =   4.3390881837094E+00
(PID.TID 0000.0001) %MON dynstat_theta_del2           =   1.2935943102191E-01
(PID.TID 0000.0001) %MON dynstat_salt_max             =   3.7392530408445E+01
(PID.TID 0000.0001) %MON dynstat_salt_min             =   2.9778158523985E+01
(PID.TID 0000.0001) %MON dynstat_salt_mean            =   3.4716107146360E+01
(PID.TID 0000.0001) %MON dynstat_salt_sd              =   2.9398068678747E-01
(PID.TID 0000.0001) %MON dynstat_salt_del2            =   2.3608396384678E-02
(PID.TID 0000.0001) %MON advcfl_uvel_max              =   3.1539243026363E-02
(PID.TID 0000.0001) %MON advcfl_vvel_max              =   1.7840551813746E-02
(PID.TID 0000.0001) %MON advcfl_wvel_max              =   1.5307041932266E-01
(PID.TID 0000.0001) %MON advcfl_W_hf_max              =   1.5401323475830E-01
(PID.TID 0000.0001) %MON pe_b_mean                    =   2.3766128560340E-04
(PID.TID 0000.0001) %MON ke_max                       =   1.8195220864225E-02
(PID.TID 0000.0001) %MON ke_mean                      =   2.7756399035148E-04
(PID.TID 0000.0001) %MON ke_vol                       =   1.3226782436723E+18
(PID.TID 0000.0001) %MON vort_r_min                   =  -1.0573859701995E-06
(PID.TID 0000.0001) %MON vort_r_max                   =   6.5647318162341E-07
(PID.TID 0000.0001) %MON vort_a_mean                  =  -2.5205768106994E-05
(PID.TID 0000.0001) %MON vort_a_sd                    =   7.3403438174760E-05
(PID.TID 0000.0001) %MON vort_p_mean                  =  -3.1758667936580E-05
(PID.TID 0000.0001) %MON vort_p_sd                    =   1.3126286696561E-04
(PID.TID 0000.0001) %MON surfExpan_theta_mean         =   1.5258738311412E-05
(PID.TID 0000.0001) %MON surfExpan_salt_mean          =   1.2550984932120E-06
(PID.TID 0000.0001) // =======================================================
(PID.TID 0000.0001) // End MONITOR dynamic field statistics
(PID.TID 0000.0001) // =======================================================
time,SST,SSS,fu,fv,Q,E-P,i0,i1,a,b =   3.0672E+06 -5.9934E-02  3.4514E+01 -2.1147E-02 -3.0182E-02  2.4849E+02  0.0000E+00     1     2  6.8333E-01  3.1667E-01
time,fu0,fu1,fu =   3.0672E+06 -3.5633E-02 -1.4435E-02 -2.1147E-02  6.8333E-01  3.1667E-01
 cg2d: Sum(rhs),rhsMax =  -2.62151411689615E-14  9.22003887916661E+00
(PID.TID 0000.0001)                    cg2d_init_res =    4.66718567355985E-01
(PID.TID 0000.0001)                       cg2d_iters =    24
(PID.TID 0000.0001)                         cg2d_res =    8.88302696233373E-14
(PID.TID 0000.0001) // =======================================================
(PID.TID 0000.0001) // Begin MONITOR dynamic field statistics
(PID.TID 0000.0001) // =======================================================
(PID.TID 0000.0001) %MON time_tsnumber                =                    72
(PID.TID 0000.0001) %MON time_secondsf                =   3.1104000000000E+06
(PID.TID 0000.0001) %MON dynstat_eta_max              =   1.0950313557048E+00
(PID.TID 0000.0001) %MON dynstat_eta_min              =  -1.4116239670485E+00
(PID.TID 0000.0001) %MON dynstat_eta_mean             =  -1.8558595462781E-16
(PID.TID 0000.0001) %MON dynstat_eta_sd               =   4.3244297223176E-01
(PID.TID 0000.0001) %MON dynstat_eta_del2             =   1.9320424276996E-02
(PID.TID 0000.0001) %MON dynstat_uvel_max             =   1.9424974420364E-01
(PID.TID 0000.0001) %MON dynstat_uvel_min             =  -1.6876427711320E-01
(PID.TID 0000.0001) %MON dynstat_uvel_mean            =   4.2311043172064E-04
(PID.TID 0000.0001) %MON dynstat_uvel_sd              =   1.9343851928748E-02
(PID.TID 0000.0001) %MON dynstat_uvel_del2            =   5.0742248902637E-03
(PID.TID 0000.0001) %MON dynstat_vvel_max             =   1.8412679368911E-01
(PID.TID 0000.0001) %MON dynstat_vvel_min             =  -1.5506146542314E-01
(PID.TID 0000.0001) %MON dynstat_vvel_mean            =  -1.9448075199309E-03
(PID.TID 0000.0001) %MON dynstat_vvel_sd              =   1.5390329187634E-02
(PID.TID 0000.0001) %MON dynstat_vvel_del2            =   4.6422534898895E-03
(PID.TID 0000.0001) %MON dynstat_wvel_max             =   3.6986019801284E-04
(PID.TID 0000.0001) %MON dynstat_wvel_min             =  -2.5005890301916E-04
(PID.TID 0000.0001) %MON dynstat_wvel_mean            =  -2.0510261400306E-22
(PID.TID 0000.0001) %MON dynstat_wvel_sd              =   2.4658897117189E-05
(PID.TID 0000.0001) %MON dynstat_wvel_del2            =   9.7098988610195E-06
(PID.TID 0000.0001) %MON dynstat_theta_max            =   2.9716810225879E+01
(PID.TID 0000.0001) %MON dynstat_theta_min            =  -1.9505732363590E+00
(PID.TID 0000.0001) %MON dynstat_theta_mean           =   3.5910694811665E+00
(PID.TID 0000.0001) %MON dynstat_theta_sd             =   4.3387369813558E+00
(PID.TID 0000.0001) %MON dynstat_theta_del2           =   1.2922990456275E-01
(PID.TID 0000.0001) %MON dynstat_salt_max             =   3.7392860998855E+01
(PID.TID 0000.0001) %MON dynstat_salt_min             =   2.9776278290763E+01
(PID.TID 0000.0001) %MON dynstat_salt_mean            =   3.4716092478124E+01
(PID.TID 0000.0001) %MON dynstat_salt_sd              =   2.9397187254929E-01
(PID.TID 0000.0001) %MON dynstat_salt_del2            =   2.3577472658173E-02
(PID.TID 0000.0001) %MON advcfl_uvel_max              =   3.1063107397103E-02
(PID.TID 0000.0001) %MON advcfl_vvel_max              =   1.7886441487527E-02
(PID.TID 0000.0001) %MON advcfl_wvel_max              =   1.5487259458877E-01
(PID.TID 0000.0001) %MON advcfl_W_hf_max              =   1.5565015352535E-01
(PID.TID 0000.0001) %MON pe_b_mean                    =   2.3929790002961E-04
(PID.TID 0000.0001) %MON ke_max                       =   1.8087722094439E-02
(PID.TID 0000.0001) %MON ke_mean                      =   2.7811493198402E-04
(PID.TID 0000.0001) %MON ke_vol                       =   1.3226782436723E+18
(PID.TID 0000.0001) %MON vort_r_min                   =  -1.0440079158724E-06
(PID.TID 0000.0001) %MON vort_r_max                   =   6.4439430177859E-07
(PID.TID 0000.0001) %MON vort_a_mean                  =  -2.5205768069785E-05
(PID.TID 0000.0001) %MON vort_a_sd                    =   7.3403449454555E-05
(PID.TID 0000.0001) %MON vort_p_mean                  =  -3.1758667889697E-05
(PID.TID 0000.0001) %MON vort_p_sd                    =   1.3126284389175E-04
(PID.TID 0000.0001) %MON surfExpan_theta_mean         =   1.5411645704498E-05
(PID.TID 0000.0001) %MON surfExpan_salt_mean          =   1.2733231995348E-06
(PID.TID 0000.0001) // =======================================================
(PID.TID 0000.0001) // End MONITOR dynamic field statistics
(PID.TID 0000.0001) // =======================================================
time,SST,SSS,fu,fv,Q,E-P,i0,i1,a,b =   3.1104E+06 -8.4772E-02  3.4509E+01 -2.0794E-02 -2.9522E-02  2.4807E+02  0.0000E+00     1     2  7.0000E-01  3.0000E-01
time,fu0,fu1,fu =   3.1104E+06 -3.5633E-02 -1.4435E-02 -2.0794E-02  7.0000E-01  3.0000E-01
 cg2d: Sum(rhs),rhsMax =  -2.84341994394310E-13  8.54125057176102E+00
(PID.TID 0000.0001)                    cg2d_init_res =    5.06880935182644E-01
(PID.TID 0000.0001)                       cg2d_iters =    24
(PID.TID 0000.0001)                         cg2d_res =    9.00636990572523E-14
(PID.TID 0000.0001) // =======================================================
(PID.TID 0000.0001) // Begin MONITOR dynamic field statistics
(PID.TID 0000.0001) // =======================================================
(PID.TID 0000.0001) %MON time_tsnumber                =                    73
(PID.TID 0000.0001) %MON time_secondsf                =   3.1536000000000E+06
(PID.TID 0000.0001) %MON dynstat_eta_max              =   1.0158228459060E+00
(PID.TID 0000.0001) %MON dynstat_eta_min              =  -1.4003772968429E+00
(PID.TID 0000.0001) %MON dynstat_eta_mean             =   4.3875482142267E-17
(PID.TID 0000.0001) %MON dynstat_eta_sd               =   4.3401690248503E-01
(PID.TID 0000.0001) %MON dynstat_eta_del2             =   1.9231604432749E-02
(PID.TID 0000.0001) %MON dynstat_uvel_max             =   1.9748084467612E-01
(PID.TID 0000.0001) %MON dynstat_uvel_min             =  -1.6813811742049E-01
(PID.TID 0000.0001) %MON dynstat_uvel_mean            =   4.8739718914861E-04
(PID.TID 0000.0001) %MON dynstat_uvel_sd              =   1.9313090537471E-02
(PID.TID 0000.0001) %MON dynstat_uvel_del2            =   5.0662638990903E-03
(PID.TID 0000.0001) %MON dynstat_vvel_max             =   1.8420768461257E-01
(PID.TID 0000.0001) %MON dynstat_vvel_min             =  -1.5571662844335E-01
(PID.TID 0000.0001) %MON dynstat_vvel_mean            =  -1.8653737371272E-03
(PID.TID 0000.0001) %MON dynstat_vvel_sd              =   1.5428185523163E-02
(PID.TID 0000.0001) %MON dynstat_vvel_del2            =   4.6413189885181E-03
(PID.TID 0000.0001) %MON dynstat_wvel_max             =   3.7176170786203E-04
(PID.TID 0000.0001) %MON dynstat_wvel_min             =  -2.5074138402680E-04
(PID.TID 0000.0001) %MON dynstat_wvel_mean            =  -3.1696550531901E-22
(PID.TID 0000.0001) %MON dynstat_wvel_sd              =   2.4514859928709E-05
(PID.TID 0000.0001) %MON dynstat_wvel_del2            =   9.6542566836293E-06
(PID.TID 0000.0001) %MON dynstat_theta_max            =   2.9721156214535E+01
(PID.TID 0000.0001) %MON dynstat_theta_min            =  -1.9473554112584E+00
(PID.TID 0000.0001) %MON dynstat_theta_mean           =   3.5909398881831E+00
(PID.TID 0000.0001) %MON dynstat_theta_sd             =   4.3383844347003E+00
(PID.TID 0000.0001) %MON dynstat_theta_del2           =   1.2911262842706E-01
(PID.TID 0000.0001) %MON dynstat_salt_max             =   3.7393182399975E+01
(PID.TID 0000.0001) %MON dynstat_salt_min             =   2.9774364316864E+01
(PID.TID 0000.0001) %MON dynstat_salt_mean            =   3.4716078102179E+01
(PID.TID 0000.0001) %MON dynstat_salt_sd              =   2.9395991278399E-01
(PID.TID 0000.0001) %MON dynstat_salt_del2            =   2.3550636263922E-02
(PID.TID 0000.0001) %MON advcfl_uvel_max              =   3.1054880897400E-02
(PID.TID 0000.0001) %MON advcfl_vvel_max              =   1.7894299392075E-02
(PID.TID 0000.0001) %MON advcfl_wvel_max              =   1.5367701720034E-01
(PID.TID 0000.0001) %MON advcfl_W_hf_max              =   1.5434348690952E-01
(PID.TID 0000.0001) %MON pe_b_mean                    =   2.4104297921713E-04
(PID.TID 0000.0001) %MON ke_max                       =   1.8253805059082E-02
(PID.TID 0000.0001) %MON ke_mean                      =   2.7798917575055E-04
(PID.TID 0000.0001) %MON ke_vol                       =   1.3226782436723E+18
(PID.TID 0000.0001) %MON vort_r_min                   =  -1.0291910500381E-06
(PID.TID 0000.0001) %MON vort_r_max                   =   6.5110084121388E-07
(PID.TID 0000.0001) %MON vort_a_mean                  =  -2.5205768034849E-05
(PID.TID 0000.0001) %MON vort_a_sd                    =   7.3403459705039E-05
(PID.TID 0000.0001) %MON vort_p_mean                  =  -3.1758667845679E-05
(PID.TID 0000.0001) %MON vort_p_sd                    =   1.3126282502014E-04
(PID.TID 0000.0001) %MON surfExpan_theta_mean         =   1.5502801714700E-05
(PID.TID 0000.0001) %MON surfExpan_salt_mean          =   1.2639702240509E-06
(PID.TID 0000.0001) // =======================================================
(PID.TID 0000.0001) // End MONITOR dynamic field statistics
(PID.TID 0000.0001) // =======================================================
time,SST,SSS,fu,fv,Q,E-P,i0,i1,a,b =   3.1536E+06 -1.0961E-01  3.4504E+01 -2.0441E-02 -2.8862E-02  2.4765E+02  0.0000E+00     1     2  7.1667E-01  2.8333E-01
time,fu0,fu1,fu =   3.1536E+06 -3.5633E-02 -1.4435E-02 -2.0441E-02  7.1667E-01  2.8333E-01
 cg2d: Sum(rhs),rhsMax =  -4.57966997657877E-15  7.85660808213075E+00
(PID.TID 0000.0001)                    cg2d_init_res =    5.48481235180555E-01
(PID.TID 0000.0001)                       cg2d_iters =    24
(PID.TID 0000.0001)                         cg2d_res =    4.81060797424961E-14
(PID.TID 0000.0001) // =======================================================
(PID.TID 0000.0001) // Begin MONITOR dynamic field statistics
(PID.TID 0000.0001) // =======================================================
(PID.TID 0000.0001) %MON time_tsnumber                =                    74
(PID.TID 0000.0001) %MON time_secondsf                =   3.1968000000000E+06
(PID.TID 0000.0001) %MON dynstat_eta_max              =   9.3589908843109E-01
(PID.TID 0000.0001) %MON dynstat_eta_min              =  -1.3857497429108E+00
(PID.TID 0000.0001) %MON dynstat_eta_mean             =  -1.2467266189723E-16
(PID.TID 0000.0001) %MON dynstat_eta_sd               =   4.3568830572455E-01
(PID.TID 0000.0001) %MON dynstat_eta_del2             =   1.9173082226675E-02
(PID.TID 0000.0001) %MON dynstat_uvel_max             =   1.9950835719270E-01
(PID.TID 0000.0001) %MON dynstat_uvel_min             =  -1.6736723909213E-01
(PID.TID 0000.0001) %MON dynstat_uvel_mean            =   5.4734879949956E-04
(PID.TID 0000.0001) %MON dynstat_uvel_sd              =   1.9247952534962E-02
(PID.TID 0000.0001) %MON dynstat_uvel_del2            =   5.0566204621688E-03
(PID.TID 0000.0001) %MON dynstat_vvel_max             =   1.8389406057207E-01
(PID.TID 0000.0001) %MON dynstat_vvel_min             =  -1.5618332233374E-01
(PID.TID 0000.0001) %MON dynstat_vvel_mean            =  -1.7791092548227E-03
(PID.TID 0000.0001) %MON dynstat_vvel_sd              =   1.5460171358727E-02
(PID.TID 0000.0001) %MON dynstat_vvel_del2            =   4.6386800161380E-03
(PID.TID 0000.0001) %MON dynstat_wvel_max             =   3.7353598861147E-04
(PID.TID 0000.0001) %MON dynstat_wvel_min             =  -2.4996266816833E-04
(PID.TID 0000.0001) %MON dynstat_wvel_mean            =  -4.1129924530984E-22
(PID.TID 0000.0001) %MON dynstat_wvel_sd              =   2.4358550122207E-05
(PID.TID 0000.0001) %MON dynstat_wvel_del2            =   9.5932550029408E-06
(PID.TID 0000.0001) %MON dynstat_theta_max            =   2.9726041907270E+01
(PID.TID 0000.0001) %MON dynstat_theta_min            =  -1.9436340944597E+00
(PID.TID 0000.0001) %MON dynstat_theta_mean           =   3.5908103973054E+00
(PID.TID 0000.0001) %MON dynstat_theta_sd             =   4.3380343023699E+00
(PID.TID 0000.0001) %MON dynstat_theta_del2           =   1.2898975182353E-01
(PID.TID 0000.0001) %MON dynstat_salt_max             =   3.7393487453493E+01
(PID.TID 0000.0001) %MON dynstat_salt_min             =   2.9772424019166E+01
(PID.TID 0000.0001) %MON dynstat_salt_mean            =   3.4716064291427E+01
(PID.TID 0000.0001) %MON dynstat_salt_sd              =   2.9394548272440E-01
(PID.TID 0000.0001) %MON dynstat_salt_del2            =   2.3523228946931E-02
(PID.TID 0000.0001) %MON advcfl_uvel_max              =   3.1036234597527E-02
(PID.TID 0000.0001) %MON advcfl_vvel_max              =   1.7863833331502E-02
(PID.TID 0000.0001) %MON advcfl_wvel_max              =   1.4957410377118E-01
(PID.TID 0000.0001) %MON advcfl_W_hf_max              =   1.5018577921902E-01
(PID.TID 0000.0001) %MON pe_b_mean                    =   2.4290307158410E-04
(PID.TID 0000.0001) %MON ke_max                       =   1.8746541350490E-02
(PID.TID 0000.0001) %MON ke_mean                      =   2.7717862393445E-04
(PID.TID 0000.0001) %MON ke_vol                       =   1.3226782436723E+18
(PID.TID 0000.0001) %MON vort_r_min                   =  -1.0130739725167E-06
(PID.TID 0000.0001) %MON vort_r_max                   =   6.5942487786374E-07
(PID.TID 0000.0001) %MON vort_a_mean                  =  -2.5205768002712E-05
(PID.TID 0000.0001) %MON vort_a_sd                    =   7.3403469005212E-05
(PID.TID 0000.0001) %MON vort_p_mean                  =  -3.1758667805187E-05
(PID.TID 0000.0001) %MON vort_p_sd                    =   1.3126281024362E-04
(PID.TID 0000.0001) %MON surfExpan_theta_mean         =   1.5535574646313E-05
(PID.TID 0000.0001) %MON surfExpan_salt_mean          =   1.2286728058349E-06
(PID.TID 0000.0001) // =======================================================
(PID.TID 0000.0001) // End MONITOR dynamic field statistics
(PID.TID 0000.0001) // =======================================================
time,SST,SSS,fu,fv,Q,E-P,i0,i1,a,b =   3.1968E+06 -1.3445E-01  3.4499E+01 -2.0088E-02 -2.8201E-02  2.4722E+02  0.0000E+00     1     2  7.3333E-01  2.6667E-01
time,fu0,fu1,fu =   3.1968E+06 -3.5633E-02 -1.4435E-02 -2.0088E-02  7.3333E-01  2.6667E-01
 cg2d: Sum(rhs),rhsMax =  -2.60111376881866E-13  7.50280922719822E+00
(PID.TID 0000.0001)                    cg2d_init_res =    5.65336968815650E-01
(PID.TID 0000.0001)                       cg2d_iters =    24
(PID.TID 0000.0001)                         cg2d_res =    9.43481579465487E-14
(PID.TID 0000.0001) // =======================================================
(PID.TID 0000.0001) // Begin MONITOR dynamic field statistics
(PID.TID 0000.0001) // =======================================================
(PID.TID 0000.0001) %MON time_tsnumber                =                    75
(PID.TID 0000.0001) %MON time_secondsf                =   3.2400000000000E+06
(PID.TID 0000.0001) %MON dynstat_eta_max              =   9.2083889099663E-01
(PID.TID 0000.0001) %MON dynstat_eta_min              =  -1.3689054857251E+00
(PID.TID 0000.0001) %MON dynstat_eta_mean             =   2.6496691752269E-16
(PID.TID 0000.0001) %MON dynstat_eta_sd               =   4.3745074731197E-01
(PID.TID 0000.0001) %MON dynstat_eta_del2             =   1.9116822787566E-02
(PID.TID 0000.0001) %MON dynstat_uvel_max             =   2.0032288477654E-01
(PID.TID 0000.0001) %MON dynstat_uvel_min             =  -1.6646056063215E-01
(PID.TID 0000.0001) %MON dynstat_uvel_mean            =   6.0327251521910E-04
(PID.TID 0000.0001) %MON dynstat_uvel_sd              =   1.9150530227366E-02
(PID.TID 0000.0001) %MON dynstat_uvel_del2            =   5.0458272885692E-03
(PID.TID 0000.0001) %MON dynstat_vvel_max             =   1.8318439777809E-01
(PID.TID 0000.0001) %MON dynstat_vvel_min             =  -1.5646803167892E-01
(PID.TID 0000.0001) %MON dynstat_vvel_mean            =  -1.6878586645727E-03
(PID.TID 0000.0001) %MON dynstat_vvel_sd              =   1.5484227506648E-02
(PID.TID 0000.0001) %MON dynstat_vvel_del2            =   4.6340333509031E-03
(PID.TID 0000.0001) %MON dynstat_wvel_max             =   3.7518688455178E-04
(PID.TID 0000.0001) %MON dynstat_wvel_min             =  -2.4854277391679E-04
(PID.TID 0000.0001) %MON dynstat_wvel_mean            =   2.6841618173475E-22
(PID.TID 0000.0001) %MON dynstat_wvel_sd              =   2.4189335476331E-05
(PID.TID 0000.0001) %MON dynstat_wvel_del2            =   9.5339187442167E-06
(PID.TID 0000.0001) %MON dynstat_theta_max            =   2.9731308776229E+01
(PID.TID 0000.0001) %MON dynstat_theta_min            =  -1.9394434137113E+00
(PID.TID 0000.0001) %MON dynstat_theta_mean           =   3.5906816425184E+00
(PID.TID 0000.0001) %MON dynstat_theta_sd             =   4.3376896161366E+00
(PID.TID 0000.0001) %MON dynstat_theta_del2           =   1.2888883897606E-01
(PID.TID 0000.0001) %MON dynstat_salt_max             =   3.7393769236759E+01
(PID.TID 0000.0001) %MON dynstat_salt_min             =   2.9770464408378E+01
(PID.TID 0000.0001) %MON dynstat_salt_mean            =   3.4716051294186E+01
(PID.TID 0000.0001) %MON dynstat_salt_sd              =   2.9392908778232E-01
(PID.TID 0000.0001) %MON dynstat_salt_del2            =   2.3497157287291E-02
(PID.TID 0000.0001) %MON advcfl_uvel_max              =   3.1008610917326E-02
(PID.TID 0000.0001) %MON advcfl_vvel_max              =   1.7794895281879E-02
(PID.TID 0000.0001) %MON advcfl_wvel_max              =   1.4272417356592E-01
(PID.TID 0000.0001) %MON advcfl_W_hf_max              =   1.4333810443340E-01
(PID.TID 0000.0001) %MON pe_b_mean                    =   2.4487222405925E-04
(PID.TID 0000.0001) %MON ke_max                       =   1.9084217807780E-02
(PID.TID 0000.0001) %MON ke_mean                      =   2.7570049045707E-04
(PID.TID 0000.0001) %MON ke_vol                       =   1.3226782436723E+18
(PID.TID 0000.0001) %MON vort_r_min                   =  -9.9581825338292E-07
(PID.TID 0000.0001) %MON vort_r_max                   =   6.6786205796948E-07
(PID.TID 0000.0001) %MON vort_a_mean                  =  -2.5205767974028E-05
(PID.TID 0000.0001) %MON vort_a_sd                    =   7.3403477420008E-05
(PID.TID 0000.0001) %MON vort_p_mean                  =  -3.1758667769046E-05
(PID.TID 0000.0001) %MON vort_p_sd                    =   1.3126279929816E-04
(PID.TID 0000.0001) %MON surfExpan_theta_mean         =   1.5514099364276E-05
(PID.TID 0000.0001) %MON surfExpan_salt_mean          =   1.1696540358819E-06
(PID.TID 0000.0001) // =======================================================
(PID.TID 0000.0001) // End MONITOR dynamic field statistics
(PID.TID 0000.0001) // =======================================================
time,SST,SSS,fu,fv,Q,E-P,i0,i1,a,b =   3.2400E+06 -1.5929E-01  3.4494E+01 -1.9734E-02 -2.7541E-02  2.4680E+02  0.0000E+00     1     2  7.5000E-01  2.5000E-01
time,fu0,fu1,fu =   3.2400E+06 -3.5633E-02 -1.4435E-02 -1.9734E-02  7.5000E-01  2.5000E-01
 cg2d: Sum(rhs),rhsMax =   1.63064006741820E-14  7.40659063234910E+00
(PID.TID 0000.0001)                    cg2d_init_res =    5.57569721530512E-01
(PID.TID 0000.0001)                       cg2d_iters =    25
(PID.TID 0000.0001)                         cg2d_res =    2.46976469321993E-14
(PID.TID 0000.0001) // =======================================================
(PID.TID 0000.0001) // Begin MONITOR dynamic field statistics
(PID.TID 0000.0001) // =======================================================
(PID.TID 0000.0001) %MON time_tsnumber                =                    76
(PID.TID 0000.0001) %MON time_secondsf                =   3.2832000000000E+06
(PID.TID 0000.0001) %MON dynstat_eta_max              =   9.0917163635628E-01
(PID.TID 0000.0001) %MON dynstat_eta_min              =  -1.3510429564888E+00
(PID.TID 0000.0001) %MON dynstat_eta_mean             =   1.3165606725385E-16
(PID.TID 0000.0001) %MON dynstat_eta_sd               =   4.3928701000895E-01
(PID.TID 0000.0001) %MON dynstat_eta_del2             =   1.9052190980897E-02
(PID.TID 0000.0001) %MON dynstat_uvel_max             =   2.0288053206802E-01
(PID.TID 0000.0001) %MON dynstat_uvel_min             =  -1.6542715848173E-01
(PID.TID 0000.0001) %MON dynstat_uvel_mean            =   6.5539444964221E-04
(PID.TID 0000.0001) %MON dynstat_uvel_sd              =   1.9023604397168E-02
(PID.TID 0000.0001) %MON dynstat_uvel_del2            =   5.0329916554006E-03
(PID.TID 0000.0001) %MON dynstat_vvel_max             =   1.8207880542999E-01
(PID.TID 0000.0001) %MON dynstat_vvel_min             =  -1.5657759110826E-01
(PID.TID 0000.0001) %MON dynstat_vvel_mean            =  -1.5932920125590E-03
(PID.TID 0000.0001) %MON dynstat_vvel_sd              =   1.5499024426291E-02
(PID.TID 0000.0001) %MON dynstat_vvel_del2            =   4.6275094258441E-03
(PID.TID 0000.0001) %MON dynstat_wvel_max             =   3.7671996625361E-04
(PID.TID 0000.0001) %MON dynstat_wvel_min             =  -2.4904223105653E-04
(PID.TID 0000.0001) %MON dynstat_wvel_mean            =   2.1169942085993E-22
(PID.TID 0000.0001) %MON dynstat_wvel_sd              =   2.4008291173686E-05
(PID.TID 0000.0001) %MON dynstat_wvel_del2            =   9.4737047922303E-06
(PID.TID 0000.0001) %MON dynstat_theta_max            =   2.9736868460664E+01
(PID.TID 0000.0001) %MON dynstat_theta_min            =  -1.9348239557060E+00
(PID.TID 0000.0001) %MON dynstat_theta_mean           =   3.5905541743447E+00
(PID.TID 0000.0001) %MON dynstat_theta_sd             =   4.3373532728610E+00
(PID.TID 0000.0001) %MON dynstat_theta_del2           =   1.2883317528174E-01
(PID.TID 0000.0001) %MON dynstat_salt_max             =   3.7393953850308E+01
(PID.TID 0000.0001) %MON dynstat_salt_min             =   2.9768491890363E+01
(PID.TID 0000.0001) %MON dynstat_salt_mean            =   3.4716039321113E+01
(PID.TID 0000.0001) %MON dynstat_salt_sd              =   2.9391150498017E-01
(PID.TID 0000.0001) %MON dynstat_salt_del2            =   2.3472687423328E-02
(PID.TID 0000.0001) %MON advcfl_uvel_max              =   3.0973450899546E-02
(PID.TID 0000.0001) %MON advcfl_vvel_max              =   1.7687495851045E-02
(PID.TID 0000.0001) %MON advcfl_wvel_max              =   1.4948247537677E-01
(PID.TID 0000.0001) %MON advcfl_W_hf_max              =   1.4183749686333E-01
(PID.TID 0000.0001) %MON pe_b_mean                    =   2.4693231182081E-04
(PID.TID 0000.0001) %MON ke_max                       =   1.9260777789799E-02
(PID.TID 0000.0001) %MON ke_mean                      =   2.7359552937956E-04
(PID.TID 0000.0001) %MON ke_vol                       =   1.3226782436723E+18
(PID.TID 0000.0001) %MON vort_r_min                   =  -9.7760246294786E-07
(PID.TID 0000.0001) %MON vort_r_max                   =   6.7626115721263E-07
(PID.TID 0000.0001) %MON vort_a_mean                  =  -2.5205767949217E-05
(PID.TID 0000.0001) %MON vort_a_sd                    =   7.3403484999749E-05
(PID.TID 0000.0001) %MON vort_p_mean                  =  -3.1758667737784E-05
(PID.TID 0000.0001) %MON vort_p_sd                    =   1.3126279165206E-04
(PID.TID 0000.0001) %MON surfExpan_theta_mean         =   1.5445166047384E-05
(PID.TID 0000.0001) %MON surfExpan_salt_mean          =   1.0906360099531E-06
(PID.TID 0000.0001) // =======================================================
(PID.TID 0000.0001) // End MONITOR dynamic field statistics
(PID.TID 0000.0001) // =======================================================
time,SST,SSS,fu,fv,Q,E-P,i0,i1,a,b =   3.2832E+06 -1.8412E-01  3.4490E+01 -1.9381E-02 -2.6880E-02  2.4638E+02  0.0000E+00     1     2  7.6667E-01  2.3333E-01
time,fu0,fu1,fu =   3.2832E+06 -3.5633E-02 -1.4435E-02 -1.9381E-02  7.6667E-01  2.3333E-01
 cg2d: Sum(rhs),rhsMax =  -2.72698530423554E-14  8.12844826572011E+00
(PID.TID 0000.0001)                    cg2d_init_res =    4.89632211586655E-01
(PID.TID 0000.0001)                       cg2d_iters =    24
(PID.TID 0000.0001)                         cg2d_res =    9.78425797915774E-14
(PID.TID 0000.0001) // =======================================================
(PID.TID 0000.0001) // Begin MONITOR dynamic field statistics
(PID.TID 0000.0001) // =======================================================
(PID.TID 0000.0001) %MON time_tsnumber                =                    77
(PID.TID 0000.0001) %MON time_secondsf                =   3.3264000000000E+06
(PID.TID 0000.0001) %MON dynstat_eta_max              =   8.9505847968185E-01
(PID.TID 0000.0001) %MON dynstat_eta_min              =  -1.3333223470101E+00
(PID.TID 0000.0001) %MON dynstat_eta_mean             =  -1.4966516390039E-16
(PID.TID 0000.0001) %MON dynstat_eta_sd               =   4.4117103325517E-01
(PID.TID 0000.0001) %MON dynstat_eta_del2             =   1.9026925210892E-02
(PID.TID 0000.0001) %MON dynstat_uvel_max             =   2.0684506181440E-01
(PID.TID 0000.0001) %MON dynstat_uvel_min             =  -1.6427585604043E-01
(PID.TID 0000.0001) %MON dynstat_uvel_mean            =   7.0387381681287E-04
(PID.TID 0000.0001) %MON dynstat_uvel_sd              =   1.8870469999908E-02
(PID.TID 0000.0001) %MON dynstat_uvel_del2            =   5.0190577674336E-03
(PID.TID 0000.0001) %MON dynstat_vvel_max             =   1.8057911941613E-01
(PID.TID 0000.0001) %MON dynstat_vvel_min             =  -1.5651900259885E-01
(PID.TID 0000.0001) %MON dynstat_vvel_mean            =  -1.4968667105625E-03
(PID.TID 0000.0001) %MON dynstat_vvel_sd              =   1.5504004128441E-02
(PID.TID 0000.0001) %MON dynstat_vvel_del2            =   4.6180935027515E-03
(PID.TID 0000.0001) %MON dynstat_wvel_max             =   3.7814229012920E-04
(PID.TID 0000.0001) %MON dynstat_wvel_min             =  -2.4898929981051E-04
(PID.TID 0000.0001) %MON dynstat_wvel_mean            =  -1.2300305684915E-22
(PID.TID 0000.0001) %MON dynstat_wvel_sd              =   2.3818377634414E-05
(PID.TID 0000.0001) %MON dynstat_wvel_del2            =   9.4083153053153E-06
(PID.TID 0000.0001) %MON dynstat_theta_max            =   2.9742625445749E+01
(PID.TID 0000.0001) %MON dynstat_theta_min            =  -1.9305256155016E+00
(PID.TID 0000.0001) %MON dynstat_theta_mean           =   3.5904284794411E+00
(PID.TID 0000.0001) %MON dynstat_theta_sd             =   4.3370272044268E+00
(PID.TID 0000.0001) %MON dynstat_theta_del2           =   1.2877889453156E-01
(PID.TID 0000.0001) %MON dynstat_salt_max             =   3.7394128528985E+01
(PID.TID 0000.0001) %MON dynstat_salt_min             =   2.9766512113688E+01
(PID.TID 0000.0001) %MON dynstat_salt_mean            =   3.4716028531957E+01
(PID.TID 0000.0001) %MON dynstat_salt_sd              =   2.9389299186718E-01
(PID.TID 0000.0001) %MON dynstat_salt_del2            =   2.3452085579807E-02
(PID.TID 0000.0001) %MON advcfl_uvel_max              =   3.0932120441631E-02
(PID.TID 0000.0001) %MON advcfl_vvel_max              =   1.7541813380835E-02
(PID.TID 0000.0001) %MON advcfl_wvel_max              =   1.5284094551631E-01
(PID.TID 0000.0001) %MON advcfl_W_hf_max              =   1.4485348693031E-01
(PID.TID 0000.0001) %MON pe_b_mean                    =   2.4905495073803E-04
(PID.TID 0000.0001) %MON ke_max                       =   1.9356941412885E-02
(PID.TID 0000.0001) %MON ke_mean                      =   2.7092466712511E-04
(PID.TID 0000.0001) %MON ke_vol                       =   1.3226782436723E+18
(PID.TID 0000.0001) %MON vort_r_min                   =  -9.5861657724334E-07
(PID.TID 0000.0001) %MON vort_r_max                   =   6.8446295253505E-07
(PID.TID 0000.0001) %MON vort_a_mean                  =  -2.5205767928654E-05
(PID.TID 0000.0001) %MON vort_a_sd                    =   7.3403491778376E-05
(PID.TID 0000.0001) %MON vort_p_mean                  =  -3.1758667711876E-05
(PID.TID 0000.0001) %MON vort_p_sd                    =   1.3126278669220E-04
(PID.TID 0000.0001) %MON surfExpan_theta_mean         =   1.5331028467031E-05
(PID.TID 0000.0001) %MON surfExpan_salt_mean          =   9.9486202181594E-07
(PID.TID 0000.0001) // =======================================================
(PID.TID 0000.0001) // End MONITOR dynamic field statistics
(PID.TID 0000.0001) // =======================================================
time,SST,SSS,fu,fv,Q,E-P,i0,i1,a,b =   3.3264E+06 -2.0896E-01  3.4485E+01 -1.9028E-02 -2.6220E-02  2.4596E+02  0.0000E+00     1     2  7.8333E-01  2.1667E-01
time,fu0,fu1,fu =   3.3264E+06 -3.5633E-02 -1.4435E-02 -1.9028E-02  7.8333E-01  2.1667E-01
 cg2d: Sum(rhs),rhsMax =   4.91079399367322E-13  8.77420787235080E+00
(PID.TID 0000.0001)                    cg2d_init_res =    4.33287754940673E-01
(PID.TID 0000.0001)                       cg2d_iters =    24
(PID.TID 0000.0001)                         cg2d_res =    8.72298508879822E-14
(PID.TID 0000.0001) // =======================================================
(PID.TID 0000.0001) // Begin MONITOR dynamic field statistics
(PID.TID 0000.0001) // =======================================================
(PID.TID 0000.0001) %MON time_tsnumber                =                    78
(PID.TID 0000.0001) %MON time_secondsf                =   3.3696000000000E+06
(PID.TID 0000.0001) %MON dynstat_eta_max              =   9.6652359072354E-01
(PID.TID 0000.0001) %MON dynstat_eta_min              =  -1.3168013766453E+00
(PID.TID 0000.0001) %MON dynstat_eta_mean             =   1.7139427920590E-17
(PID.TID 0000.0001) %MON dynstat_eta_sd               =   4.4307083539569E-01
(PID.TID 0000.0001) %MON dynstat_eta_del2             =   1.9015013808412E-02
(PID.TID 0000.0001) %MON dynstat_uvel_max             =   2.1007661703343E-01
(PID.TID 0000.0001) %MON dynstat_uvel_min             =  -1.6301500937003E-01
(PID.TID 0000.0001) %MON dynstat_uvel_mean            =   7.4880280755821E-04
(PID.TID 0000.0001) %MON dynstat_uvel_sd              =   1.8694753229518E-02
(PID.TID 0000.0001) %MON dynstat_uvel_del2            =   5.0044112649183E-03
(PID.TID 0000.0001) %MON dynstat_vvel_max             =   1.7868895394248E-01
(PID.TID 0000.0001) %MON dynstat_vvel_min             =  -1.5629923335412E-01
(PID.TID 0000.0001) %MON dynstat_vvel_mean            =  -1.3998099478195E-03
(PID.TID 0000.0001) %MON dynstat_vvel_sd              =   1.5499328372990E-02
(PID.TID 0000.0001) %MON dynstat_vvel_del2            =   4.6065316021343E-03
(PID.TID 0000.0001) %MON dynstat_wvel_max             =   3.7946198434620E-04
(PID.TID 0000.0001) %MON dynstat_wvel_min             =  -2.4841896190645E-04
(PID.TID 0000.0001) %MON dynstat_wvel_mean            =   5.6220313130368E-23
(PID.TID 0000.0001) %MON dynstat_wvel_sd              =   2.3623657910628E-05
(PID.TID 0000.0001) %MON dynstat_wvel_del2            =   9.3412286825025E-06
(PID.TID 0000.0001) %MON dynstat_theta_max            =   2.9748481025339E+01
(PID.TID 0000.0001) %MON dynstat_theta_min            =  -1.9305107039257E+00
(PID.TID 0000.0001) %MON dynstat_theta_mean           =   3.5903050281525E+00
(PID.TID 0000.0001) %MON dynstat_theta_sd             =   4.3367135842126E+00
(PID.TID 0000.0001) %MON dynstat_theta_del2           =   1.2873688933988E-01
(PID.TID 0000.0001) %MON dynstat_salt_max             =   3.7394263814372E+01
(PID.TID 0000.0001) %MON dynstat_salt_min             =   2.9764529866144E+01
(PID.TID 0000.0001) %MON dynstat_salt_mean            =   3.4716019047896E+01
(PID.TID 0000.0001) %MON dynstat_salt_sd              =   2.9387391113745E-01
(PID.TID 0000.0001) %MON dynstat_salt_del2            =   2.3429189401558E-02
(PID.TID 0000.0001) %MON advcfl_uvel_max              =   3.0885856590031E-02
(PID.TID 0000.0001) %MON advcfl_vvel_max              =   1.7358198962375E-02
(PID.TID 0000.0001) %MON advcfl_wvel_max              =   1.5144800220364E-01
(PID.TID 0000.0001) %MON advcfl_W_hf_max              =   1.4346773565990E-01
(PID.TID 0000.0001) %MON pe_b_mean                    =   2.5120456555833E-04
(PID.TID 0000.0001) %MON ke_max                       =   1.9614075657452E-02
(PID.TID 0000.0001) %MON ke_mean                      =   2.6776415999623E-04
(PID.TID 0000.0001) %MON ke_vol                       =   1.3226782436723E+18
(PID.TID 0000.0001) %MON vort_r_min                   =  -9.3905046480337E-07
(PID.TID 0000.0001) %MON vort_r_max                   =   6.9230696167396E-07
(PID.TID 0000.0001) %MON vort_a_mean                  =  -2.5205767912653E-05
(PID.TID 0000.0001) %MON vort_a_sd                    =   7.3403497773752E-05
(PID.TID 0000.0001) %MON vort_p_mean                  =  -3.1758667691714E-05
(PID.TID 0000.0001) %MON vort_p_sd                    =   1.3126278373248E-04
(PID.TID 0000.0001) %MON surfExpan_theta_mean         =   1.5175518189762E-05
(PID.TID 0000.0001) %MON surfExpan_salt_mean          =   8.8639045256773E-07
(PID.TID 0000.0001) // =======================================================
(PID.TID 0000.0001) // End MONITOR dynamic field statistics
(PID.TID 0000.0001) // =======================================================
time,SST,SSS,fu,fv,Q,E-P,i0,i1,a,b =   3.3696E+06 -2.3380E-01  3.4480E+01 -1.8674E-02 -2.5560E-02  2.4554E+02  0.0000E+00     1     2  8.0000E-01  2.0000E-01
time,fu0,fu1,fu =   3.3696E+06 -3.5633E-02 -1.4435E-02 -1.8674E-02  8.0000E-01  2.0000E-01
 cg2d: Sum(rhs),rhsMax =  -2.45498066320238E-14  9.32820220910843E+00
(PID.TID 0000.0001)                    cg2d_init_res =    3.86634391620665E-01
(PID.TID 0000.0001)                       cg2d_iters =    24
(PID.TID 0000.0001)                         cg2d_res =    7.70212850979566E-14
(PID.TID 0000.0001) // =======================================================
(PID.TID 0000.0001) // Begin MONITOR dynamic field statistics
(PID.TID 0000.0001) // =======================================================
(PID.TID 0000.0001) %MON time_tsnumber                =                    79
(PID.TID 0000.0001) %MON time_secondsf                =   3.4128000000000E+06
(PID.TID 0000.0001) %MON dynstat_eta_max              =   1.0307369215621E+00
(PID.TID 0000.0001) %MON dynstat_eta_min              =  -1.3023826734892E+00
(PID.TID 0000.0001) %MON dynstat_eta_mean             =   7.1181745921511E-17
(PID.TID 0000.0001) %MON dynstat_eta_sd               =   4.4495191023790E-01
(PID.TID 0000.0001) %MON dynstat_eta_del2             =   1.9047063522811E-02
(PID.TID 0000.0001) %MON dynstat_uvel_max             =   2.1254822436931E-01
(PID.TID 0000.0001) %MON dynstat_uvel_min             =  -1.6165245290355E-01
(PID.TID 0000.0001) %MON dynstat_uvel_mean            =   7.9020751630517E-04
(PID.TID 0000.0001) %MON dynstat_uvel_sd              =   1.8500242243094E-02
(PID.TID 0000.0001) %MON dynstat_uvel_del2            =   4.9898265716654E-03
(PID.TID 0000.0001) %MON dynstat_vvel_max             =   1.7863438849869E-01
(PID.TID 0000.0001) %MON dynstat_vvel_min             =  -1.5592506285094E-01
(PID.TID 0000.0001) %MON dynstat_vvel_mean            =  -1.3030983211817E-03
(PID.TID 0000.0001) %MON dynstat_vvel_sd              =   1.5485759218727E-02
(PID.TID 0000.0001) %MON dynstat_vvel_del2            =   4.5935403802489E-03
(PID.TID 0000.0001) %MON dynstat_wvel_max             =   3.8068756530802E-04
(PID.TID 0000.0001) %MON dynstat_wvel_min             =  -2.4737160145670E-04
(PID.TID 0000.0001) %MON dynstat_wvel_mean            =   4.8199550069855E-22
(PID.TID 0000.0001) %MON dynstat_wvel_sd              =   2.3428769263511E-05
(PID.TID 0000.0001) %MON dynstat_wvel_del2            =   9.2754125918378E-06
(PID.TID 0000.0001) %MON dynstat_theta_max            =   2.9754335886894E+01
(PID.TID 0000.0001) %MON dynstat_theta_min            =  -1.9305282805931E+00
(PID.TID 0000.0001) %MON dynstat_theta_mean           =   3.5901842685718E+00
(PID.TID 0000.0001) %MON dynstat_theta_sd             =   4.3364137586516E+00
(PID.TID 0000.0001) %MON dynstat_theta_del2           =   1.2869867896391E-01
(PID.TID 0000.0001) %MON dynstat_salt_max             =   3.7394356927534E+01
(PID.TID 0000.0001) %MON dynstat_salt_min             =   2.9762549030329E+01
(PID.TID 0000.0001) %MON dynstat_salt_mean            =   3.4716010940452E+01
(PID.TID 0000.0001) %MON dynstat_salt_sd              =   2.9385492954431E-01
(PID.TID 0000.0001) %MON dynstat_salt_del2            =   2.3406081357261E-02
(PID.TID 0000.0001) %MON advcfl_uvel_max              =   3.0835702939589E-02
(PID.TID 0000.0001) %MON advcfl_vvel_max              =   1.7352898367073E-02
(PID.TID 0000.0001) %MON advcfl_wvel_max              =   1.4562634036725E-01
(PID.TID 0000.0001) %MON advcfl_W_hf_max              =   1.3797977429748E-01
(PID.TID 0000.0001) %MON pe_b_mean                    =   2.5334209135727E-04
(PID.TID 0000.0001) %MON ke_max                       =   2.0035380409862E-02
(PID.TID 0000.0001) %MON ke_mean                      =   2.6420010515451E-04
(PID.TID 0000.0001) %MON ke_vol                       =   1.3226782436723E+18
(PID.TID 0000.0001) %MON vort_r_min                   =  -9.1909171664935E-07
(PID.TID 0000.0001) %MON vort_r_max                   =   6.9963787933368E-07
(PID.TID 0000.0001) %MON vort_a_mean                  =  -2.5205767901430E-05
(PID.TID 0000.0001) %MON vort_a_sd                    =   7.3403502988371E-05
(PID.TID 0000.0001) %MON vort_p_mean                  =  -3.1758667677573E-05
(PID.TID 0000.0001) %MON vort_p_sd                    =   1.3126278192613E-04
(PID.TID 0000.0001) %MON surfExpan_theta_mean         =   1.4981064979687E-05
(PID.TID 0000.0001) %MON surfExpan_salt_mean          =   7.6923312807321E-07
(PID.TID 0000.0001) // =======================================================
(PID.TID 0000.0001) // End MONITOR dynamic field statistics
(PID.TID 0000.0001) // =======================================================
time,SST,SSS,fu,fv,Q,E-P,i0,i1,a,b =   3.4128E+06 -2.5864E-01  3.4475E+01 -1.8321E-02 -2.4899E-02  2.4512E+02  0.0000E+00     1     2  8.1667E-01  1.8333E-01
time,fu0,fu1,fu =   3.4128E+06 -3.5633E-02 -1.4435E-02 -1.8321E-02  8.1667E-01  1.8333E-01
 cg2d: Sum(rhs),rhsMax =   1.37737043992558E-13  9.78281075940551E+00
(PID.TID 0000.0001)                    cg2d_init_res =    3.48296767449969E-01
(PID.TID 0000.0001)                       cg2d_iters =    24
(PID.TID 0000.0001)                         cg2d_res =    5.94652996379876E-14
(PID.TID 0000.0001) // =======================================================
(PID.TID 0000.0001) // Begin MONITOR dynamic field statistics
(PID.TID 0000.0001) // =======================================================
(PID.TID 0000.0001) %MON time_tsnumber                =                    80
(PID.TID 0000.0001) %MON time_secondsf                =   3.4560000000000E+06
(PID.TID 0000.0001) %MON dynstat_eta_max              =   1.0839609861408E+00
(PID.TID 0000.0001) %MON dynstat_eta_min              =  -1.2907748086735E+00
(PID.TID 0000.0001) %MON dynstat_eta_mean             =  -2.9115618177935E-17
(PID.TID 0000.0001) %MON dynstat_eta_sd               =   4.4678060878004E-01
(PID.TID 0000.0001) %MON dynstat_eta_del2             =   1.9115343285867E-02
(PID.TID 0000.0001) %MON dynstat_uvel_max             =   2.1424142195057E-01
(PID.TID 0000.0001) %MON dynstat_uvel_min             =  -1.6019546300024E-01
(PID.TID 0000.0001) %MON dynstat_uvel_mean            =   8.2806965397724E-04
(PID.TID 0000.0001) %MON dynstat_uvel_sd              =   1.8290736813353E-02
(PID.TID 0000.0001) %MON dynstat_uvel_del2            =   4.9755983767099E-03
(PID.TID 0000.0001) %MON dynstat_vvel_max             =   1.7948458120515E-01
(PID.TID 0000.0001) %MON dynstat_vvel_min             =  -1.5540293390141E-01
(PID.TID 0000.0001) %MON dynstat_vvel_mean            =  -1.2074592804317E-03
(PID.TID 0000.0001) %MON dynstat_vvel_sd              =   1.5464504062593E-02
(PID.TID 0000.0001) %MON dynstat_vvel_del2            =   4.5789305956999E-03
(PID.TID 0000.0001) %MON dynstat_wvel_max             =   3.8182716376783E-04
(PID.TID 0000.0001) %MON dynstat_wvel_min             =  -2.4589154725517E-04
(PID.TID 0000.0001) %MON dynstat_wvel_mean            =  -1.0694578847284E-22
(PID.TID 0000.0001) %MON dynstat_wvel_sd              =   2.3238313342456E-05
(PID.TID 0000.0001) %MON dynstat_wvel_del2            =   9.2118785075284E-06
(PID.TID 0000.0001) %MON dynstat_theta_max            =   2.9760095386520E+01
(PID.TID 0000.0001) %MON dynstat_theta_min            =  -1.9305858058240E+00
(PID.TID 0000.0001) %MON dynstat_theta_mean           =   3.5900666057691E+00
(PID.TID 0000.0001) %MON dynstat_theta_sd             =   4.3361284189342E+00
(PID.TID 0000.0001) %MON dynstat_theta_del2           =   1.2865456642349E-01
(PID.TID 0000.0001) %MON dynstat_salt_max             =   3.7394406143345E+01
(PID.TID 0000.0001) %MON dynstat_salt_min             =   2.9760572584387E+01
(PID.TID 0000.0001) %MON dynstat_salt_mean            =   3.4716004236300E+01
(PID.TID 0000.0001) %MON dynstat_salt_sd              =   2.9383613491116E-01
(PID.TID 0000.0001) %MON dynstat_salt_del2            =   2.3384741040120E-02
(PID.TID 0000.0001) %MON advcfl_uvel_max              =   3.0782518186428E-02
(PID.TID 0000.0001) %MON advcfl_vvel_max              =   1.7435487770779E-02
(PID.TID 0000.0001) %MON advcfl_wvel_max              =   1.3584352375023E-01
(PID.TID 0000.0001) %MON advcfl_W_hf_max              =   1.2882316384979E-01
(PID.TID 0000.0001) %MON pe_b_mean                    =   2.5542878130198E-04
(PID.TID 0000.0001) %MON ke_max                       =   2.0392660536510E-02
(PID.TID 0000.0001) %MON ke_mean                      =   2.6032298799404E-04
(PID.TID 0000.0001) %MON ke_vol                       =   1.3226782436723E+18
(PID.TID 0000.0001) %MON vort_r_min                   =  -8.9894464408163E-07
(PID.TID 0000.0001) %MON vort_r_max                   =   7.0631083996793E-07
(PID.TID 0000.0001) %MON vort_a_mean                  =  -2.5205767895108E-05
(PID.TID 0000.0001) %MON vort_a_sd                    =   7.3403507412985E-05
(PID.TID 0000.0001) %MON vort_p_mean                  =  -3.1758667669608E-05
(PID.TID 0000.0001) %MON vort_p_sd                    =   1.3126278042209E-04
(PID.TID 0000.0001) %MON surfExpan_theta_mean         =   1.4749028572814E-05
(PID.TID 0000.0001) %MON surfExpan_salt_mean          =   6.4735044652488E-07
(PID.TID 0000.0001) // =======================================================
(PID.TID 0000.0001) // End MONITOR dynamic field statistics
(PID.TID 0000.0001) // =======================================================
time,SST,SSS,fu,fv,Q,E-P,i0,i1,a,b =   3.4560E+06 -2.8348E-01  3.4470E+01 -1.7968E-02 -2.4239E-02  2.4470E+02  0.0000E+00     1     2  8.3333E-01  1.6667E-01
time,fu0,fu1,fu =   3.4560E+06 -3.5633E-02 -1.4435E-02 -1.7968E-02  8.3333E-01  1.6667E-01
 cg2d: Sum(rhs),rhsMax =   4.04537514597791E-14  1.01326142745769E+01
(PID.TID 0000.0001)                    cg2d_init_res =    3.17498425297431E-01
(PID.TID 0000.0001)                       cg2d_iters =    23
(PID.TID 0000.0001)                         cg2d_res =    7.55914345057695E-14
(PID.TID 0000.0001) // =======================================================
(PID.TID 0000.0001) // Begin MONITOR dynamic field statistics
(PID.TID 0000.0001) // =======================================================
(PID.TID 0000.0001) %MON time_tsnumber                =                    81
(PID.TID 0000.0001) %MON time_secondsf                =   3.4992000000000E+06
(PID.TID 0000.0001) %MON dynstat_eta_max              =   1.1252266696092E+00
(PID.TID 0000.0001) %MON dynstat_eta_min              =  -1.2824681701037E+00
(PID.TID 0000.0001) %MON dynstat_eta_mean             =   5.8803605117649E-17
(PID.TID 0000.0001) %MON dynstat_eta_sd               =   4.4852709366305E-01
(PID.TID 0000.0001) %MON dynstat_eta_del2             =   1.9197131048394E-02
(PID.TID 0000.0001) %MON dynstat_uvel_max             =   2.1514660175126E-01
(PID.TID 0000.0001) %MON dynstat_uvel_min             =  -1.5865080973451E-01
(PID.TID 0000.0001) %MON dynstat_uvel_mean            =   8.6233945244228E-04
(PID.TID 0000.0001) %MON dynstat_uvel_sd              =   1.8069933060818E-02
(PID.TID 0000.0001) %MON dynstat_uvel_del2            =   4.9627427288767E-03
(PID.TID 0000.0001) %MON dynstat_vvel_max             =   1.8015089475817E-01
(PID.TID 0000.0001) %MON dynstat_vvel_min             =  -1.5473882114749E-01
(PID.TID 0000.0001) %MON dynstat_vvel_mean            =  -1.1133729590522E-03
(PID.TID 0000.0001) %MON dynstat_vvel_sd              =   1.5437039526930E-02
(PID.TID 0000.0001) %MON dynstat_vvel_del2            =   4.5644575582282E-03
(PID.TID 0000.0001) %MON dynstat_wvel_max             =   3.8288765160749E-04
(PID.TID 0000.0001) %MON dynstat_wvel_min             =  -2.4402581673423E-04
(PID.TID 0000.0001) %MON dynstat_wvel_mean            =  -2.2903637465887E-22
(PID.TID 0000.0001) %MON dynstat_wvel_sd              =   2.3056461789746E-05
(PID.TID 0000.0001) %MON dynstat_wvel_del2            =   9.1480052187220E-06
(PID.TID 0000.0001) %MON dynstat_theta_max            =   2.9765672991960E+01
(PID.TID 0000.0001) %MON dynstat_theta_min            =  -1.9306897153897E+00
(PID.TID 0000.0001) %MON dynstat_theta_mean           =   3.5899524119512E+00
(PID.TID 0000.0001) %MON dynstat_theta_sd             =   4.3358584607386E+00
(PID.TID 0000.0001) %MON dynstat_theta_del2           =   1.2863634639541E-01
(PID.TID 0000.0001) %MON dynstat_salt_max             =   3.7394410824910E+01
(PID.TID 0000.0001) %MON dynstat_salt_min             =   2.9758602649927E+01
(PID.TID 0000.0001) %MON dynstat_salt_mean            =   3.4715998919791E+01
(PID.TID 0000.0001) %MON dynstat_salt_sd              =   2.9381775552471E-01
(PID.TID 0000.0001) %MON dynstat_salt_del2            =   2.3360737584705E-02
(PID.TID 0000.0001) %MON advcfl_uvel_max              =   3.0726956942003E-02
(PID.TID 0000.0001) %MON advcfl_vvel_max              =   1.7500214789262E-02
(PID.TID 0000.0001) %MON advcfl_wvel_max              =   1.2268531515469E-01
(PID.TID 0000.0001) %MON advcfl_W_hf_max              =   1.1654077022650E-01
(PID.TID 0000.0001) %MON pe_b_mean                    =   2.5742964890241E-04
(PID.TID 0000.0001) %MON ke_max                       =   2.0721456674673E-02
(PID.TID 0000.0001) %MON ke_mean                      =   2.5622275673570E-04
(PID.TID 0000.0001) %MON ke_vol                       =   1.3226782436723E+18
(PID.TID 0000.0001) %MON vort_r_min                   =  -8.7880432785919E-07
(PID.TID 0000.0001) %MON vort_r_max                   =   7.1219748436791E-07
(PID.TID 0000.0001) %MON vort_a_mean                  =  -2.5205767893744E-05
(PID.TID 0000.0001) %MON vort_a_sd                    =   7.3403511029535E-05
(PID.TID 0000.0001) %MON vort_p_mean                  =  -3.1758667667890E-05
(PID.TID 0000.0001) %MON vort_p_sd                    =   1.3126277840439E-04
(PID.TID 0000.0001) %MON surfExpan_theta_mean         =   1.4481825862396E-05
(PID.TID 0000.0001) %MON surfExpan_salt_mean          =   5.2488037315624E-07
(PID.TID 0000.0001) // =======================================================
(PID.TID 0000.0001) // End MONITOR dynamic field statistics
(PID.TID 0000.0001) // =======================================================
time,SST,SSS,fu,fv,Q,E-P,i0,i1,a,b =   3.4992E+06 -3.0831E-01  3.4465E+01 -1.7614E-02 -2.3579E-02  2.4427E+02  0.0000E+00     1     2  8.5000E-01  1.5000E-01
time,fu0,fu1,fu =   3.4992E+06 -3.5633E-02 -1.4435E-02 -1.7614E-02  8.5000E-01  1.5000E-01
 cg2d: Sum(rhs),rhsMax =  -1.27300947561082E-13  1.03744137117066E+01
(PID.TID 0000.0001)                    cg2d_init_res =    2.93823182038100E-01
(PID.TID 0000.0001)                       cg2d_iters =    24
(PID.TID 0000.0001)                         cg2d_res =    4.30146389647895E-14
(PID.TID 0000.0001) // =======================================================
(PID.TID 0000.0001) // Begin MONITOR dynamic field statistics
(PID.TID 0000.0001) // =======================================================
(PID.TID 0000.0001) %MON time_tsnumber                =                    82
(PID.TID 0000.0001) %MON time_secondsf                =   3.5424000000000E+06
(PID.TID 0000.0001) %MON dynstat_eta_max              =   1.1542050502079E+00
(PID.TID 0000.0001) %MON dynstat_eta_min              =  -1.2777261246972E+00
(PID.TID 0000.0001) %MON dynstat_eta_mean             =   2.5099875255655E-16
(PID.TID 0000.0001) %MON dynstat_eta_sd               =   4.5016760667541E-01
(PID.TID 0000.0001) %MON dynstat_eta_del2             =   1.9248989985387E-02
(PID.TID 0000.0001) %MON dynstat_uvel_max             =   2.1526327323657E-01
(PID.TID 0000.0001) %MON dynstat_uvel_min             =  -1.5702484010644E-01
(PID.TID 0000.0001) %MON dynstat_uvel_mean            =   8.9294661651299E-04
(PID.TID 0000.0001) %MON dynstat_uvel_sd              =   1.7841340543354E-02
(PID.TID 0000.0001) %MON dynstat_uvel_del2            =   4.9512928346416E-03
(PID.TID 0000.0001) %MON dynstat_vvel_max             =   1.8060888683222E-01
(PID.TID 0000.0001) %MON dynstat_vvel_min             =  -1.5393814309136E-01
(PID.TID 0000.0001) %MON dynstat_vvel_mean            =  -1.0210852383836E-03
(PID.TID 0000.0001) %MON dynstat_vvel_sd              =   1.5404939243654E-02
(PID.TID 0000.0001) %MON dynstat_vvel_del2            =   4.5494345562498E-03
(PID.TID 0000.0001) %MON dynstat_wvel_max             =   3.8387406431337E-04
(PID.TID 0000.0001) %MON dynstat_wvel_min             =  -2.4182279597294E-04
(PID.TID 0000.0001) %MON dynstat_wvel_mean            =  -1.6176187585710E-22
(PID.TID 0000.0001) %MON dynstat_wvel_sd              =   2.2886378029028E-05
(PID.TID 0000.0001) %MON dynstat_wvel_del2            =   9.0831310641753E-06
(PID.TID 0000.0001) %MON dynstat_theta_max            =   2.9770992889386E+01
(PID.TID 0000.0001) %MON dynstat_theta_min            =  -1.9308451689111E+00
(PID.TID 0000.0001) %MON dynstat_theta_mean           =   3.5898420639511E+00
(PID.TID 0000.0001) %MON dynstat_theta_sd             =   4.3356040422513E+00
(PID.TID 0000.0001) %MON dynstat_theta_del2           =   1.2862405345614E-01
(PID.TID 0000.0001) %MON dynstat_salt_max             =   3.7394371287185E+01
(PID.TID 0000.0001) %MON dynstat_salt_min             =   2.9756640579851E+01
(PID.TID 0000.0001) %MON dynstat_salt_mean            =   3.4715994934381E+01
(PID.TID 0000.0001) %MON dynstat_salt_sd              =   2.9379998020301E-01
(PID.TID 0000.0001) %MON dynstat_salt_del2            =   2.3340000309921E-02
(PID.TID 0000.0001) %MON advcfl_uvel_max              =   3.0669469156266E-02
(PID.TID 0000.0001) %MON advcfl_vvel_max              =   1.7544705046602E-02
(PID.TID 0000.0001) %MON advcfl_wvel_max              =   1.0682554892528E-01
(PID.TID 0000.0001) %MON advcfl_W_hf_max              =   1.0175684573924E-01
(PID.TID 0000.0001) %MON pe_b_mean                    =   2.5931621949430E-04
(PID.TID 0000.0001) %MON ke_max                       =   2.0940623127447E-02
(PID.TID 0000.0001) %MON ke_mean                      =   2.5198476403204E-04
(PID.TID 0000.0001) %MON ke_vol                       =   1.3226782436723E+18
(PID.TID 0000.0001) %MON vort_r_min                   =  -8.5885135041522E-07
(PID.TID 0000.0001) %MON vort_r_max                   =   7.1718998901537E-07
(PID.TID 0000.0001) %MON vort_a_mean                  =  -2.5205767897221E-05
(PID.TID 0000.0001) %MON vort_a_sd                    =   7.3403513815467E-05
(PID.TID 0000.0001) %MON vort_p_mean                  =  -3.1758667672270E-05
(PID.TID 0000.0001) %MON vort_p_sd                    =   1.3126277501707E-04
(PID.TID 0000.0001) %MON surfExpan_theta_mean         =   1.4181042018132E-05
(PID.TID 0000.0001) %MON surfExpan_salt_mean          =   4.0545455615792E-07
(PID.TID 0000.0001) // =======================================================
(PID.TID 0000.0001) // End MONITOR dynamic field statistics
(PID.TID 0000.0001) // =======================================================
time,SST,SSS,fu,fv,Q,E-P,i0,i1,a,b =   3.5424E+06 -3.3315E-01  3.4460E+01 -1.7261E-02 -2.2918E-02  2.4385E+02  0.0000E+00     1     2  8.6667E-01  1.3333E-01
time,fu0,fu1,fu =   3.5424E+06 -3.5633E-02 -1.4435E-02 -1.7261E-02  8.6667E-01  1.3333E-01
 cg2d: Sum(rhs),rhsMax =   4.70873340319145E-14  1.05072081285184E+01
(PID.TID 0000.0001)                    cg2d_init_res =    2.77032804653437E-01
(PID.TID 0000.0001)                       cg2d_iters =    24
(PID.TID 0000.0001)                         cg2d_res =    5.23024452663473E-14
(PID.TID 0000.0001) // =======================================================
(PID.TID 0000.0001) // Begin MONITOR dynamic field statistics
(PID.TID 0000.0001) // =======================================================
(PID.TID 0000.0001) %MON time_tsnumber                =                    83
(PID.TID 0000.0001) %MON time_secondsf                =   3.5856000000000E+06
(PID.TID 0000.0001) %MON dynstat_eta_max              =   1.1708213839142E+00
(PID.TID 0000.0001) %MON dynstat_eta_min              =  -1.2765907319393E+00
(PID.TID 0000.0001) %MON dynstat_eta_mean             =   2.8156437482207E-18
(PID.TID 0000.0001) %MON dynstat_eta_sd               =   4.5168589793001E-01
(PID.TID 0000.0001) %MON dynstat_eta_del2             =   1.9282494936286E-02
(PID.TID 0000.0001) %MON dynstat_uvel_max             =   2.1460011841180E-01
(PID.TID 0000.0001) %MON dynstat_uvel_min             =  -1.5532358944301E-01
(PID.TID 0000.0001) %MON dynstat_uvel_mean            =   9.1982288778480E-04
(PID.TID 0000.0001) %MON dynstat_uvel_sd              =   1.7608236371499E-02
(PID.TID 0000.0001) %MON dynstat_uvel_del2            =   4.9407067924338E-03
(PID.TID 0000.0001) %MON dynstat_vvel_max             =   1.8083996360846E-01
(PID.TID 0000.0001) %MON dynstat_vvel_min             =  -1.5300566834437E-01
(PID.TID 0000.0001) %MON dynstat_vvel_mean            =  -9.3062494042928E-04
(PID.TID 0000.0001) %MON dynstat_vvel_sd              =   1.5369723192870E-02
(PID.TID 0000.0001) %MON dynstat_vvel_del2            =   4.5337296556139E-03
(PID.TID 0000.0001) %MON dynstat_wvel_max             =   3.8478878354716E-04
(PID.TID 0000.0001) %MON dynstat_wvel_min             =  -2.3933114054836E-04
(PID.TID 0000.0001) %MON dynstat_wvel_mean            =  -2.7043673648632E-22
(PID.TID 0000.0001) %MON dynstat_wvel_sd              =   2.2730074958072E-05
(PID.TID 0000.0001) %MON dynstat_wvel_del2            =   9.0223745709911E-06
(PID.TID 0000.0001) %MON dynstat_theta_max            =   2.9775992122163E+01
(PID.TID 0000.0001) %MON dynstat_theta_min            =  -1.9310481148969E+00
(PID.TID 0000.0001) %MON dynstat_theta_mean           =   3.5897358847147E+00
(PID.TID 0000.0001) %MON dynstat_theta_sd             =   4.3353656054535E+00
(PID.TID 0000.0001) %MON dynstat_theta_del2           =   1.2861888377964E-01
(PID.TID 0000.0001) %MON dynstat_salt_max             =   3.7394288644942E+01
(PID.TID 0000.0001) %MON dynstat_salt_min             =   2.9754687076432E+01
(PID.TID 0000.0001) %MON dynstat_salt_mean            =   3.4715992188075E+01
(PID.TID 0000.0001) %MON dynstat_salt_sd              =   2.9378270034137E-01
(PID.TID 0000.0001) %MON dynstat_salt_del2            =   2.3317293143086E-02
(PID.TID 0000.0001) %MON advcfl_uvel_max              =   3.0610331715629E-02
(PID.TID 0000.0001) %MON advcfl_vvel_max              =   1.7567152302400E-02
(PID.TID 0000.0001) %MON advcfl_wvel_max              =   8.8994247945066E-02
(PID.TID 0000.0001) %MON advcfl_W_hf_max              =   8.5147496745403E-02
(PID.TID 0000.0001) %MON pe_b_mean                    =   2.6106837354878E-04
(PID.TID 0000.0001) %MON ke_max                       =   2.1047660552709E-02
(PID.TID 0000.0001) %MON ke_mean                      =   2.4768688034727E-04
(PID.TID 0000.0001) %MON ke_vol                       =   1.3226782436723E+18
(PID.TID 0000.0001) %MON vort_r_min                   =  -8.3924813086570E-07
(PID.TID 0000.0001) %MON vort_r_max                   =   7.2120379532740E-07
(PID.TID 0000.0001) %MON vort_a_mean                  =  -2.5205767904858E-05
(PID.TID 0000.0001) %MON vort_a_sd                    =   7.3403515752786E-05
(PID.TID 0000.0001) %MON vort_p_mean                  =  -3.1758667681892E-05
(PID.TID 0000.0001) %MON vort_p_sd                    =   1.3126276948609E-04
(PID.TID 0000.0001) %MON surfExpan_theta_mean         =   1.3848714821771E-05
(PID.TID 0000.0001) %MON surfExpan_salt_mean          =   2.9237256177035E-07
(PID.TID 0000.0001) // =======================================================
(PID.TID 0000.0001) // End MONITOR dynamic field statistics
(PID.TID 0000.0001) // =======================================================
time,SST,SSS,fu,fv,Q,E-P,i0,i1,a,b =   3.5856E+06 -3.5799E-01  3.4455E+01 -1.6908E-02 -2.2258E-02  2.4343E+02  0.0000E+00     1     2  8.8333E-01  1.1667E-01
time,fu0,fu1,fu =   3.5856E+06 -3.5633E-02 -1.4435E-02 -1.6908E-02  8.8333E-01  1.1667E-01
 cg2d: Sum(rhs),rhsMax =  -2.77791678549022E-13  1.05321358653354E+01
(PID.TID 0000.0001)                    cg2d_init_res =    2.66908331215138E-01
(PID.TID 0000.0001)                       cg2d_iters =    24
(PID.TID 0000.0001)                         cg2d_res =    4.88349925636931E-14
(PID.TID 0000.0001) // =======================================================
(PID.TID 0000.0001) // Begin MONITOR dynamic field statistics
(PID.TID 0000.0001) // =======================================================
(PID.TID 0000.0001) %MON time_tsnumber                =                    84
(PID.TID 0000.0001) %MON time_secondsf                =   3.6288000000000E+06
(PID.TID 0000.0001) %MON dynstat_eta_max              =   1.1752434936885E+00
(PID.TID 0000.0001) %MON dynstat_eta_min              =  -1.2789010876810E+00
(PID.TID 0000.0001) %MON dynstat_eta_mean             =  -2.0372200211779E-16
(PID.TID 0000.0001) %MON dynstat_eta_sd               =   4.5307380105158E-01
(PID.TID 0000.0001) %MON dynstat_eta_del2             =   1.9292310893297E-02
(PID.TID 0000.0001) %MON dynstat_uvel_max             =   2.1317488521878E-01
(PID.TID 0000.0001) %MON dynstat_uvel_min             =  -1.5355291073205E-01
(PID.TID 0000.0001) %MON dynstat_uvel_mean            =   9.4291934183495E-04
(PID.TID 0000.0001) %MON dynstat_uvel_sd              =   1.7373650317233E-02
(PID.TID 0000.0001) %MON dynstat_uvel_del2            =   4.9302524936933E-03
(PID.TID 0000.0001) %MON dynstat_vvel_max             =   1.8083168215320E-01
(PID.TID 0000.0001) %MON dynstat_vvel_min             =  -1.5194547084475E-01
(PID.TID 0000.0001) %MON dynstat_vvel_mean            =  -8.4183161776153E-04
(PID.TID 0000.0001) %MON dynstat_vvel_sd              =   1.5332740279982E-02
(PID.TID 0000.0001) %MON dynstat_vvel_del2            =   4.5192294434515E-03
(PID.TID 0000.0001) %MON dynstat_wvel_max             =   3.8563083748137E-04
(PID.TID 0000.0001) %MON dynstat_wvel_min             =  -2.3659898329743E-04
(PID.TID 0000.0001) %MON dynstat_wvel_mean            =  -1.3596118631456E-23
(PID.TID 0000.0001) %MON dynstat_wvel_sd              =   2.2588285969109E-05
(PID.TID 0000.0001) %MON dynstat_wvel_del2            =   8.9669979728246E-06
(PID.TID 0000.0001) %MON dynstat_theta_max            =   2.9780623062927E+01
(PID.TID 0000.0001) %MON dynstat_theta_min            =  -1.9312880732553E+00
(PID.TID 0000.0001) %MON dynstat_theta_mean           =   3.5896342133059E+00
(PID.TID 0000.0001) %MON dynstat_theta_sd             =   4.3351418441930E+00
(PID.TID 0000.0001) %MON dynstat_theta_del2           =   1.2862311521528E-01
(PID.TID 0000.0001) %MON dynstat_salt_max             =   3.7394164666565E+01
(PID.TID 0000.0001) %MON dynstat_salt_min             =   2.9752742329446E+01
(PID.TID 0000.0001) %MON dynstat_salt_mean            =   3.4715990560427E+01
(PID.TID 0000.0001) %MON dynstat_salt_sd              =   2.9376473845690E-01
(PID.TID 0000.0001) %MON dynstat_salt_del2            =   2.3291090914116E-02
(PID.TID 0000.0001) %MON advcfl_uvel_max              =   3.0549689729235E-02
(PID.TID 0000.0001) %MON advcfl_vvel_max              =   1.7566347825432E-02
(PID.TID 0000.0001) %MON advcfl_wvel_max              =   7.1776777108435E-02
(PID.TID 0000.0001) %MON advcfl_W_hf_max              =   6.7411042431080E-02
(PID.TID 0000.0001) %MON pe_b_mean                    =   2.6267521712215E-04
(PID.TID 0000.0001) %MON ke_max                       =   2.1042063637443E-02
(PID.TID 0000.0001) %MON ke_mean                      =   2.4339778035738E-04
(PID.TID 0000.0001) %MON ke_vol                       =   1.3226782436723E+18
(PID.TID 0000.0001) %MON vort_r_min                   =  -8.2013597252628E-07
(PID.TID 0000.0001) %MON vort_r_max                   =   7.2417935622346E-07
(PID.TID 0000.0001) %MON vort_a_mean                  =  -2.5205767917138E-05
(PID.TID 0000.0001) %MON vort_a_sd                    =   7.3403516814799E-05
(PID.TID 0000.0001) %MON vort_p_mean                  =  -3.1758667697365E-05
(PID.TID 0000.0001) %MON vort_p_sd                    =   1.3126276104357E-04
(PID.TID 0000.0001) %MON surfExpan_theta_mean         =   1.3485904339108E-05
(PID.TID 0000.0001) %MON surfExpan_salt_mean          =   1.8835564425334E-07
(PID.TID 0000.0001) // =======================================================
(PID.TID 0000.0001) // End MONITOR dynamic field statistics
(PID.TID 0000.0001) // =======================================================
time,SST,SSS,fu,fv,Q,E-P,i0,i1,a,b =   3.6288E+06 -3.8283E-01  3.4450E+01 -1.6555E-02 -2.1598E-02  2.4301E+02  0.0000E+00     1     2  9.0000E-01  1.0000E-01
time,fu0,fu1,fu =   3.6288E+06 -3.5633E-02 -1.4435E-02 -1.6555E-02  9.0000E-01  1.0000E-01
 cg2d: Sum(rhs),rhsMax =   2.15938378289593E-14  1.04523943399434E+01
(PID.TID 0000.0001)                    cg2d_init_res =    2.63157688087676E-01
(PID.TID 0000.0001)                       cg2d_iters =    24
(PID.TID 0000.0001)                         cg2d_res =    4.56324349356757E-14
(PID.TID 0000.0001) // =======================================================
(PID.TID 0000.0001) // Begin MONITOR dynamic field statistics
(PID.TID 0000.0001) // =======================================================
(PID.TID 0000.0001) %MON time_tsnumber                =                    85
(PID.TID 0000.0001) %MON time_secondsf                =   3.6720000000000E+06
(PID.TID 0000.0001) %MON dynstat_eta_max              =   1.1678667455789E+00
(PID.TID 0000.0001) %MON dynstat_eta_min              =  -1.2843219383555E+00
(PID.TID 0000.0001) %MON dynstat_eta_mean             =   7.1589514227855E-17
(PID.TID 0000.0001) %MON dynstat_eta_sd               =   4.5433113637294E-01
(PID.TID 0000.0001) %MON dynstat_eta_del2             =   1.9266506034695E-02
(PID.TID 0000.0001) %MON dynstat_uvel_max             =   2.1101423938766E-01
(PID.TID 0000.0001) %MON dynstat_uvel_min             =  -1.5449634913691E-01
(PID.TID 0000.0001) %MON dynstat_uvel_mean            =   9.6222337692521E-04
(PID.TID 0000.0001) %MON dynstat_uvel_sd              =   1.7140381219639E-02
(PID.TID 0000.0001) %MON dynstat_uvel_del2            =   4.9215713798533E-03
(PID.TID 0000.0001) %MON dynstat_vvel_max             =   1.8057779203396E-01
(PID.TID 0000.0001) %MON dynstat_vvel_min             =  -1.5076096010646E-01
(PID.TID 0000.0001) %MON dynstat_vvel_mean            =  -7.5439274648642E-04
(PID.TID 0000.0001) %MON dynstat_vvel_sd              =   1.5295078726407E-02
(PID.TID 0000.0001) %MON dynstat_vvel_del2            =   4.5056886983742E-03
(PID.TID 0000.0001) %MON dynstat_wvel_max             =   3.8639549325521E-04
(PID.TID 0000.0001) %MON dynstat_wvel_min             =  -2.3367293546468E-04
(PID.TID 0000.0001) %MON dynstat_wvel_mean            =   7.1799086832225E-23
(PID.TID 0000.0001) %MON dynstat_wvel_sd              =   2.2460546534923E-05
(PID.TID 0000.0001) %MON dynstat_wvel_del2            =   8.9148182823387E-06
(PID.TID 0000.0001) %MON dynstat_theta_max            =   2.9784854920585E+01
(PID.TID 0000.0001) %MON dynstat_theta_min            =  -1.9315920930787E+00
(PID.TID 0000.0001) %MON dynstat_theta_mean           =   3.5895372430024E+00
(PID.TID 0000.0001) %MON dynstat_theta_sd             =   4.3349347284891E+00
(PID.TID 0000.0001) %MON dynstat_theta_del2           =   1.2863649587691E-01
(PID.TID 0000.0001) %MON dynstat_salt_max             =   3.7394001596376E+01
(PID.TID 0000.0001) %MON dynstat_salt_min             =   2.9750806164070E+01
(PID.TID 0000.0001) %MON dynstat_salt_mean            =   3.4715989907554E+01
(PID.TID 0000.0001) %MON dynstat_salt_sd              =   2.9374806588069E-01
(PID.TID 0000.0001) %MON dynstat_salt_del2            =   2.3268887240931E-02
(PID.TID 0000.0001) %MON advcfl_uvel_max              =   3.0487580162048E-02
(PID.TID 0000.0001) %MON advcfl_vvel_max              =   1.7541684436301E-02
(PID.TID 0000.0001) %MON advcfl_wvel_max              =   6.9970701672835E-02
(PID.TID 0000.0001) %MON advcfl_W_hf_max              =   6.0461809228305E-02
(PID.TID 0000.0001) %MON pe_b_mean                    =   2.6413515190000E-04
(PID.TID 0000.0001) %MON ke_max                       =   2.0925316943539E-02
(PID.TID 0000.0001) %MON ke_mean                      =   2.3917625885796E-04
(PID.TID 0000.0001) %MON ke_vol                       =   1.3226782436723E+18
(PID.TID 0000.0001) %MON vort_r_min                   =  -8.0164246620545E-07
(PID.TID 0000.0001) %MON vort_r_max                   =   7.2608276429643E-07
(PID.TID 0000.0001) %MON vort_a_mean                  =  -2.5205767933787E-05
(PID.TID 0000.0001) %MON vort_a_sd                    =   7.3403516990691E-05
(PID.TID 0000.0001) %MON vort_p_mean                  =  -3.1758667718343E-05
(PID.TID 0000.0001) %MON vort_p_sd                    =   1.3126274906578E-04
(PID.TID 0000.0001) %MON surfExpan_theta_mean         =   1.3095948866721E-05
(PID.TID 0000.0001) %MON surfExpan_salt_mean          =   9.5615793526580E-08
(PID.TID 0000.0001) // =======================================================
(PID.TID 0000.0001) // End MONITOR dynamic field statistics
(PID.TID 0000.0001) // =======================================================
time,SST,SSS,fu,fv,Q,E-P,i0,i1,a,b =   3.6720E+06 -4.0767E-01  3.4446E+01 -1.6201E-02 -2.0937E-02  2.4259E+02  0.0000E+00     1     2  9.1667E-01  8.3333E-02
time,fu0,fu1,fu =   3.6720E+06 -3.5633E-02 -1.4435E-02 -1.6201E-02  9.1667E-01  8.3333E-02
 cg2d: Sum(rhs),rhsMax =  -1.95440885697451E-13  1.02769518931019E+01
(PID.TID 0000.0001)                    cg2d_init_res =    2.65257302698978E-01
(PID.TID 0000.0001)                       cg2d_iters =    24
(PID.TID 0000.0001)                         cg2d_res =    4.32173578109820E-14
(PID.TID 0000.0001) // =======================================================
(PID.TID 0000.0001) // Begin MONITOR dynamic field statistics
(PID.TID 0000.0001) // =======================================================
(PID.TID 0000.0001) %MON time_tsnumber                =                    86
(PID.TID 0000.0001) %MON time_secondsf                =   3.7152000000000E+06
(PID.TID 0000.0001) %MON dynstat_eta_max              =   1.1492958234077E+00
(PID.TID 0000.0001) %MON dynstat_eta_min              =  -1.2923779243178E+00
(PID.TID 0000.0001) %MON dynstat_eta_mean             =   1.0048699405010E-16
(PID.TID 0000.0001) %MON dynstat_eta_sd               =   4.5546488821709E-01
(PID.TID 0000.0001) %MON dynstat_eta_del2             =   1.9243647719057E-02
(PID.TID 0000.0001) %MON dynstat_uvel_max             =   2.0815362680889E-01
(PID.TID 0000.0001) %MON dynstat_uvel_min             =  -1.5563922781668E-01
(PID.TID 0000.0001) %MON dynstat_uvel_mean            =   9.7775151611165E-04
(PID.TID 0000.0001) %MON dynstat_uvel_sd              =   1.6911036280634E-02
(PID.TID 0000.0001) %MON dynstat_uvel_del2            =   4.9150885636387E-03
(PID.TID 0000.0001) %MON dynstat_vvel_max             =   1.8007805313236E-01
(PID.TID 0000.0001) %MON dynstat_vvel_min             =  -1.4989384436519E-01
(PID.TID 0000.0001) %MON dynstat_vvel_mean            =  -6.6786300873311E-04
(PID.TID 0000.0001) %MON dynstat_vvel_sd              =   1.5257512846162E-02
(PID.TID 0000.0001) %MON dynstat_vvel_del2            =   4.4921062533541E-03
(PID.TID 0000.0001) %MON dynstat_wvel_max             =   3.8707412275521E-04
(PID.TID 0000.0001) %MON dynstat_wvel_min             =  -2.3059729486177E-04
(PID.TID 0000.0001) %MON dynstat_wvel_mean            =   7.0721253050760E-23
(PID.TID 0000.0001) %MON dynstat_wvel_sd              =   2.2345328797003E-05
(PID.TID 0000.0001) %MON dynstat_wvel_del2            =   8.8664183092672E-06
(PID.TID 0000.0001) %MON dynstat_theta_max            =   2.9788674222749E+01
(PID.TID 0000.0001) %MON dynstat_theta_min            =  -1.9319422875037E+00
(PID.TID 0000.0001) %MON dynstat_theta_mean           =   3.5894452552896E+00
(PID.TID 0000.0001) %MON dynstat_theta_sd             =   4.3347431704325E+00
(PID.TID 0000.0001) %MON dynstat_theta_del2           =   1.2864709289278E-01
(PID.TID 0000.0001) %MON dynstat_salt_max             =   3.7393802007135E+01
(PID.TID 0000.0001) %MON dynstat_salt_min             =   2.9748878188412E+01
(PID.TID 0000.0001) %MON dynstat_salt_mean            =   3.4715990079353E+01
(PID.TID 0000.0001) %MON dynstat_salt_sd              =   2.9373144611510E-01
(PID.TID 0000.0001) %MON dynstat_salt_del2            =   2.3247466239446E-02
(PID.TID 0000.0001) %MON advcfl_uvel_max              =   3.0423950104185E-02
(PID.TID 0000.0001) %MON advcfl_vvel_max              =   1.7493138809435E-02
(PID.TID 0000.0001) %MON advcfl_wvel_max              =   6.6378923227267E-02
(PID.TID 0000.0001) %MON advcfl_W_hf_max              =   6.2538227417706E-02
(PID.TID 0000.0001) %MON pe_b_mean                    =   2.6545505862456E-04
(PID.TID 0000.0001) %MON ke_max                       =   2.0700850599323E-02
(PID.TID 0000.0001) %MON ke_mean                      =   2.3507144259375E-04
(PID.TID 0000.0001) %MON ke_vol                       =   1.3226782436723E+18
(PID.TID 0000.0001) %MON vort_r_min                   =  -7.8387861144542E-07
(PID.TID 0000.0001) %MON vort_r_max                   =   7.2690534068052E-07
(PID.TID 0000.0001) %MON vort_a_mean                  =  -2.5205767954124E-05
(PID.TID 0000.0001) %MON vort_a_sd                    =   7.3403516281429E-05
(PID.TID 0000.0001) %MON vort_p_mean                  =  -3.1758667743967E-05
(PID.TID 0000.0001) %MON vort_p_sd                    =   1.3126273300739E-04
(PID.TID 0000.0001) %MON surfExpan_theta_mean         =   1.2681921999714E-05
(PID.TID 0000.0001) %MON surfExpan_salt_mean          =   1.5668389040313E-08
(PID.TID 0000.0001) // =======================================================
(PID.TID 0000.0001) // End MONITOR dynamic field statistics
(PID.TID 0000.0001) // =======================================================
time,SST,SSS,fu,fv,Q,E-P,i0,i1,a,b =   3.7152E+06 -4.3250E-01  3.4441E+01 -1.5848E-02 -2.0277E-02  2.4217E+02  0.0000E+00     1     2  9.3333E-01  6.6667E-02
time,fu0,fu1,fu =   3.7152E+06 -3.5633E-02 -1.4435E-02 -1.5848E-02  9.3333E-01  6.6667E-02
 cg2d: Sum(rhs),rhsMax =   2.57821541893577E-13  1.00214510762035E+01
(PID.TID 0000.0001)                    cg2d_init_res =    2.72436446759184E-01
(PID.TID 0000.0001)                       cg2d_iters =    24
(PID.TID 0000.0001)                         cg2d_res =    4.15419510801153E-14
(PID.TID 0000.0001) // =======================================================
(PID.TID 0000.0001) // Begin MONITOR dynamic field statistics
(PID.TID 0000.0001) // =======================================================
(PID.TID 0000.0001) %MON time_tsnumber                =                    87
(PID.TID 0000.0001) %MON time_secondsf                =   3.7584000000000E+06
(PID.TID 0000.0001) %MON dynstat_eta_max              =   1.1203249929141E+00
(PID.TID 0000.0001) %MON dynstat_eta_min              =  -1.3024919110812E+00
(PID.TID 0000.0001) %MON dynstat_eta_mean             =  -1.5980672843295E-16
(PID.TID 0000.0001) %MON dynstat_eta_sd               =   4.5648808258444E-01
(PID.TID 0000.0001) %MON dynstat_eta_del2             =   1.9213480172950E-02
(PID.TID 0000.0001) %MON dynstat_uvel_max             =   2.0463684773846E-01
(PID.TID 0000.0001) %MON dynstat_uvel_min             =  -1.5656157347833E-01
(PID.TID 0000.0001) %MON dynstat_uvel_mean            =   9.8957917998192E-04
(PID.TID 0000.0001) %MON dynstat_uvel_sd              =   1.6688072414082E-02
(PID.TID 0000.0001) %MON dynstat_uvel_del2            =   4.9107445437623E-03
(PID.TID 0000.0001) %MON dynstat_vvel_max             =   1.7933786032488E-01
(PID.TID 0000.0001) %MON dynstat_vvel_min             =  -1.5018995019397E-01
(PID.TID 0000.0001) %MON dynstat_vvel_mean            =  -5.8172010413081E-04
(PID.TID 0000.0001) %MON dynstat_vvel_sd              =   1.5220486707039E-02
(PID.TID 0000.0001) %MON dynstat_vvel_del2            =   4.4790196732624E-03
(PID.TID 0000.0001) %MON dynstat_wvel_max             =   3.8765421915953E-04
(PID.TID 0000.0001) %MON dynstat_wvel_min             =  -2.2741349971074E-04
(PID.TID 0000.0001) %MON dynstat_wvel_mean            =  -4.8181179252177E-23
(PID.TID 0000.0001) %MON dynstat_wvel_sd              =   2.2240327103770E-05
(PID.TID 0000.0001) %MON dynstat_wvel_del2            =   8.8246425182598E-06
(PID.TID 0000.0001) %MON dynstat_theta_max            =   2.9792110209638E+01
(PID.TID 0000.0001) %MON dynstat_theta_min            =  -1.9321433277258E+00
(PID.TID 0000.0001) %MON dynstat_theta_mean           =   3.5893584145553E+00
(PID.TID 0000.0001) %MON dynstat_theta_sd             =   4.3345669512595E+00
(PID.TID 0000.0001) %MON dynstat_theta_del2           =   1.2866574991747E-01
(PID.TID 0000.0001) %MON dynstat_salt_max             =   3.7393568721330E+01
(PID.TID 0000.0001) %MON dynstat_salt_min             =   2.9746957931658E+01
(PID.TID 0000.0001) %MON dynstat_salt_mean            =   3.4715990912901E+01
(PID.TID 0000.0001) %MON dynstat_salt_sd              =   2.9371479642472E-01
(PID.TID 0000.0001) %MON dynstat_salt_del2            =   2.3225117984373E-02
(PID.TID 0000.0001) %MON advcfl_uvel_max              =   3.0358711459951E-02
(PID.TID 0000.0001) %MON advcfl_vvel_max              =   1.7421235013821E-02
(PID.TID 0000.0001) %MON advcfl_wvel_max              =   6.1205667802396E-02
(PID.TID 0000.0001) %MON advcfl_W_hf_max              =   6.3953321524361E-02
(PID.TID 0000.0001) %MON pe_b_mean                    =   2.6664907912486E-04
(PID.TID 0000.0001) %MON ke_max                       =   2.0373919950994E-02
(PID.TID 0000.0001) %MON ke_mean                      =   2.3112361259291E-04
(PID.TID 0000.0001) %MON ke_vol                       =   1.3226782436723E+18
(PID.TID 0000.0001) %MON vort_r_min                   =  -7.6692532489608E-07
(PID.TID 0000.0001) %MON vort_r_max                   =   7.2666229113576E-07
(PID.TID 0000.0001) %MON vort_a_mean                  =  -2.5205767977741E-05
(PID.TID 0000.0001) %MON vort_a_sd                    =   7.3403514700152E-05
(PID.TID 0000.0001) %MON vort_p_mean                  =  -3.1758667773724E-05
(PID.TID 0000.0001) %MON vort_p_sd                    =   1.3126271243586E-04
(PID.TID 0000.0001) %MON surfExpan_theta_mean         =   1.2247639015811E-05
(PID.TID 0000.0001) %MON surfExpan_salt_mean          =  -5.0555681655854E-08
(PID.TID 0000.0001) // =======================================================
(PID.TID 0000.0001) // End MONITOR dynamic field statistics
(PID.TID 0000.0001) // =======================================================
time,SST,SSS,fu,fv,Q,E-P,i0,i1,a,b =   3.7584E+06 -4.5734E-01  3.4436E+01 -1.5495E-02 -1.9617E-02  2.4175E+02  0.0000E+00     1     2  9.5000E-01  5.0000E-02
time,fu0,fu1,fu =   3.7584E+06 -3.5633E-02 -1.4435E-02 -1.5495E-02  9.5000E-01  5.0000E-02
 cg2d: Sum(rhs),rhsMax =   9.60759249934995E-14  9.68125384295361E+00
(PID.TID 0000.0001)                    cg2d_init_res =    2.84453484772809E-01
(PID.TID 0000.0001)                       cg2d_iters =    24
(PID.TID 0000.0001)                         cg2d_res =    4.07690522469800E-14
(PID.TID 0000.0001) // =======================================================
(PID.TID 0000.0001) // Begin MONITOR dynamic field statistics
(PID.TID 0000.0001) // =======================================================
(PID.TID 0000.0001) %MON time_tsnumber                =                    88
(PID.TID 0000.0001) %MON time_secondsf                =   3.8016000000000E+06
(PID.TID 0000.0001) %MON dynstat_eta_max              =   1.0819159605398E+00
(PID.TID 0000.0001) %MON dynstat_eta_min              =  -1.3140251274700E+00
(PID.TID 0000.0001) %MON dynstat_eta_mean             =  -7.1568236565875E-17
(PID.TID 0000.0001) %MON dynstat_eta_sd               =   4.5741836594829E-01
(PID.TID 0000.0001) %MON dynstat_eta_del2             =   1.9173139191571E-02
(PID.TID 0000.0001) %MON dynstat_uvel_max             =   2.0051520052961E-01
(PID.TID 0000.0001) %MON dynstat_uvel_min             =  -1.5726900024861E-01
(PID.TID 0000.0001) %MON dynstat_uvel_mean            =   9.9783770180380E-04
(PID.TID 0000.0001) %MON dynstat_uvel_sd              =   1.6473844762072E-02
(PID.TID 0000.0001) %MON dynstat_uvel_del2            =   4.9071641958020E-03
(PID.TID 0000.0001) %MON dynstat_vvel_max             =   1.7836770549990E-01
(PID.TID 0000.0001) %MON dynstat_vvel_min             =  -1.5046514500701E-01
(PID.TID 0000.0001) %MON dynstat_vvel_mean            =  -4.9539916099030E-04
(PID.TID 0000.0001) %MON dynstat_vvel_sd              =   1.5184122990797E-02
(PID.TID 0000.0001) %MON dynstat_vvel_del2            =   4.4666333190303E-03
(PID.TID 0000.0001) %MON dynstat_wvel_max             =   3.8811962466732E-04
(PID.TID 0000.0001) %MON dynstat_wvel_min             =  -2.2415977207431E-04
(PID.TID 0000.0001) %MON dynstat_wvel_mean            =   1.3285129572108E-22
(PID.TID 0000.0001) %MON dynstat_wvel_sd              =   2.2142761432013E-05
(PID.TID 0000.0001) %MON dynstat_wvel_del2            =   8.7821845876266E-06
(PID.TID 0000.0001) %MON dynstat_theta_max            =   2.9795329355365E+01
(PID.TID 0000.0001) %MON dynstat_theta_min            =  -1.9321750323762E+00
(PID.TID 0000.0001) %MON dynstat_theta_mean           =   3.5892768475558E+00
(PID.TID 0000.0001) %MON dynstat_theta_sd             =   4.3344057515253E+00
(PID.TID 0000.0001) %MON dynstat_theta_del2           =   1.2866641897301E-01
(PID.TID 0000.0001) %MON dynstat_salt_max             =   3.7393304698838E+01
(PID.TID 0000.0001) %MON dynstat_salt_min             =   2.9745044965310E+01
(PID.TID 0000.0001) %MON dynstat_salt_mean            =   3.4715992246227E+01
(PID.TID 0000.0001) %MON dynstat_salt_sd              =   2.9369799308053E-01
(PID.TID 0000.0001) %MON dynstat_salt_del2            =   2.3206479167873E-02
(PID.TID 0000.0001) %MON advcfl_uvel_max              =   3.0291735957915E-02
(PID.TID 0000.0001) %MON advcfl_vvel_max              =   1.7326992252281E-02
(PID.TID 0000.0001) %MON advcfl_wvel_max              =   5.8633494505852E-02
(PID.TID 0000.0001) %MON advcfl_W_hf_max              =   6.4638147231521E-02
(PID.TID 0000.0001) %MON pe_b_mean                    =   2.6773700222035E-04
(PID.TID 0000.0001) %MON ke_max                       =   1.9951410516994E-02
(PID.TID 0000.0001) %MON ke_mean                      =   2.2736541869274E-04
(PID.TID 0000.0001) %MON ke_vol                       =   1.3226782436723E+18
(PID.TID 0000.0001) %MON vort_r_min                   =  -7.5083728478709E-07
(PID.TID 0000.0001) %MON vort_r_max                   =   7.2539055591665E-07
(PID.TID 0000.0001) %MON vort_a_mean                  =  -2.5205768004322E-05
(PID.TID 0000.0001) %MON vort_a_sd                    =   7.3403512274297E-05
(PID.TID 0000.0001) %MON vort_p_mean                  =  -3.1758667807215E-05
(PID.TID 0000.0001) %MON vort_p_sd                    =   1.3126268702506E-04
(PID.TID 0000.0001) %MON surfExpan_theta_mean         =   1.1797599297081E-05
(PID.TID 0000.0001) %MON surfExpan_salt_mean          =  -1.0264945495695E-07
(PID.TID 0000.0001) // =======================================================
(PID.TID 0000.0001) // End MONITOR dynamic field statistics
(PID.TID 0000.0001) // =======================================================
time,SST,SSS,fu,fv,Q,E-P,i0,i1,a,b =   3.8016E+06 -4.8218E-01  3.4431E+01 -1.5141E-02 -1.8956E-02  2.4132E+02  0.0000E+00     1     2  9.6667E-01  3.3333E-02
time,fu0,fu1,fu =   3.8016E+06 -3.5633E-02 -1.4435E-02 -1.5141E-02  9.6667E-01  3.3333E-02
 cg2d: Sum(rhs),rhsMax =  -1.15310538895130E-13  9.26624651688814E+00
(PID.TID 0000.0001)                    cg2d_init_res =    3.00800812056482E-01
(PID.TID 0000.0001)                       cg2d_iters =    24
(PID.TID 0000.0001)                         cg2d_res =    3.64847940514578E-14
(PID.TID 0000.0001) // =======================================================
(PID.TID 0000.0001) // Begin MONITOR dynamic field statistics
(PID.TID 0000.0001) // =======================================================
(PID.TID 0000.0001) %MON time_tsnumber                =                    89
(PID.TID 0000.0001) %MON time_secondsf                =   3.8448000000000E+06
(PID.TID 0000.0001) %MON dynstat_eta_max              =   1.0351736978328E+00
(PID.TID 0000.0001) %MON dynstat_eta_min              =  -1.3263167738769E+00
(PID.TID 0000.0001) %MON dynstat_eta_mean             =  -1.6996964317676E-16
(PID.TID 0000.0001) %MON dynstat_eta_sd               =   4.5827645150838E-01
(PID.TID 0000.0001) %MON dynstat_eta_del2             =   1.9115645802613E-02
(PID.TID 0000.0001) %MON dynstat_uvel_max             =   1.9584670775486E-01
(PID.TID 0000.0001) %MON dynstat_uvel_min             =  -1.5777107840321E-01
(PID.TID 0000.0001) %MON dynstat_uvel_mean            =   1.0027130727891E-03
(PID.TID 0000.0001) %MON dynstat_uvel_sd              =   1.6270648809943E-02
(PID.TID 0000.0001) %MON dynstat_uvel_del2            =   4.9038347043015E-03
(PID.TID 0000.0001) %MON dynstat_vvel_max             =   1.7718250219682E-01
(PID.TID 0000.0001) %MON dynstat_vvel_min             =  -1.5070682891211E-01
(PID.TID 0000.0001) %MON dynstat_vvel_mean            =  -4.0833214378369E-04
(PID.TID 0000.0001) %MON dynstat_vvel_sd              =   1.5148254976243E-02
(PID.TID 0000.0001) %MON dynstat_vvel_del2            =   4.4545773037855E-03
(PID.TID 0000.0001) %MON dynstat_wvel_max             =   3.8845097033647E-04
(PID.TID 0000.0001) %MON dynstat_wvel_min             =  -2.2087084272391E-04
(PID.TID 0000.0001) %MON dynstat_wvel_mean            =  -2.2171929466506E-23
(PID.TID 0000.0001) %MON dynstat_wvel_sd              =   2.2049643782900E-05
(PID.TID 0000.0001) %MON dynstat_wvel_del2            =   8.7370911699807E-06
(PID.TID 0000.0001) %MON dynstat_theta_max            =   2.9798290449816E+01
(PID.TID 0000.0001) %MON dynstat_theta_min            =  -1.9322574089361E+00
(PID.TID 0000.0001) %MON dynstat_theta_mean           =   3.5892006640054E+00
(PID.TID 0000.0001) %MON dynstat_theta_sd             =   4.3342594606379E+00
(PID.TID 0000.0001) %MON dynstat_theta_del2           =   1.2867840396260E-01
(PID.TID 0000.0001) %MON dynstat_salt_max             =   3.7393012762751E+01
(PID.TID 0000.0001) %MON dynstat_salt_min             =   2.9743139001954E+01
(PID.TID 0000.0001) %MON dynstat_salt_mean            =   3.4715993921960E+01
(PID.TID 0000.0001) %MON dynstat_salt_sd              =   2.9368092775764E-01
(PID.TID 0000.0001) %MON dynstat_salt_del2            =   2.3182900532439E-02
(PID.TID 0000.0001) %MON advcfl_uvel_max              =   3.0222877999815E-02
(PID.TID 0000.0001) %MON advcfl_vvel_max              =   1.7211859255574E-02
(PID.TID 0000.0001) %MON advcfl_wvel_max              =   6.7435613677279E-02
(PID.TID 0000.0001) %MON advcfl_W_hf_max              =   6.5951901355388E-02
(PID.TID 0000.0001) %MON pe_b_mean                    =   2.6874245701650E-04
(PID.TID 0000.0001) %MON ke_max                       =   1.9441603084541E-02
(PID.TID 0000.0001) %MON ke_mean                      =   2.2382328289082E-04
(PID.TID 0000.0001) %MON ke_vol                       =   1.3226782436723E+18
(PID.TID 0000.0001) %MON vort_r_min                   =  -7.3564814346672E-07
(PID.TID 0000.0001) %MON vort_r_max                   =   7.2314597855748E-07
(PID.TID 0000.0001) %MON vort_a_mean                  =  -2.5205768033527E-05
(PID.TID 0000.0001) %MON vort_a_sd                    =   7.3403509047387E-05
(PID.TID 0000.0001) %MON vort_p_mean                  =  -3.1758667844013E-05
(PID.TID 0000.0001) %MON vort_p_sd                    =   1.3126265655384E-04
(PID.TID 0000.0001) %MON surfExpan_theta_mean         =   1.1336300120796E-05
(PID.TID 0000.0001) %MON surfExpan_salt_mean          =  -1.4077518352399E-07
(PID.TID 0000.0001) // =======================================================
(PID.TID 0000.0001) // End MONITOR dynamic field statistics
(PID.TID 0000.0001) // =======================================================
time,SST,SSS,fu,fv,Q,E-P,i0,i1,a,b =   3.8448E+06 -5.0702E-01  3.4426E+01 -1.4788E-02 -1.8296E-02  2.4090E+02  0.0000E+00     1     2  9.8333E-01  1.6667E-02
time,fu0,fu1,fu =   3.8448E+06 -3.5633E-02 -1.4435E-02 -1.4788E-02  9.8333E-01  1.6667E-02
 cg2d: Sum(rhs),rhsMax =   1.48214773787458E-13  8.78736604331394E+00
(PID.TID 0000.0001)                    cg2d_init_res =    3.21097858196041E-01
(PID.TID 0000.0001)                       cg2d_iters =    24
(PID.TID 0000.0001)                         cg2d_res =    4.36149917673487E-14
(PID.TID 0000.0001) // =======================================================
(PID.TID 0000.0001) // Begin MONITOR dynamic field statistics
(PID.TID 0000.0001) // =======================================================
(PID.TID 0000.0001) %MON time_tsnumber                =                    90
(PID.TID 0000.0001) %MON time_secondsf                =   3.8880000000000E+06
(PID.TID 0000.0001) %MON dynstat_eta_max              =   9.8132113088875E-01
(PID.TID 0000.0001) %MON dynstat_eta_min              =  -1.3387209593078E+00
(PID.TID 0000.0001) %MON dynstat_eta_mean             =   7.6647880206240E-18
(PID.TID 0000.0001) %MON dynstat_eta_sd               =   4.5908455007167E-01
(PID.TID 0000.0001) %MON dynstat_eta_del2             =   1.9038321739766E-02
(PID.TID 0000.0001) %MON dynstat_uvel_max             =   1.9069519716299E-01
(PID.TID 0000.0001) %MON dynstat_uvel_min             =  -1.5808062585667E-01
(PID.TID 0000.0001) %MON dynstat_uvel_mean            =   1.0044446734575E-03
(PID.TID 0000.0001) %MON dynstat_uvel_sd              =   1.6080743639380E-02
(PID.TID 0000.0001) %MON dynstat_uvel_del2            =   4.8997099610663E-03
(PID.TID 0000.0001) %MON dynstat_vvel_max             =   1.7580083529619E-01
(PID.TID 0000.0001) %MON dynstat_vvel_min             =  -1.5090181088669E-01
(PID.TID 0000.0001) %MON dynstat_vvel_mean            =  -3.1998526083349E-04
(PID.TID 0000.0001) %MON dynstat_vvel_sd              =   1.5112478867352E-02
(PID.TID 0000.0001) %MON dynstat_vvel_del2            =   4.4419941919162E-03
(PID.TID 0000.0001) %MON dynstat_wvel_max             =   3.8862626645938E-04
(PID.TID 0000.0001) %MON dynstat_wvel_min             =  -2.1757764267409E-04
(PID.TID 0000.0001) %MON dynstat_wvel_mean            =   1.8107816962431E-22
(PID.TID 0000.0001) %MON dynstat_wvel_sd              =   2.1957961177807E-05
(PID.TID 0000.0001) %MON dynstat_wvel_del2            =   8.6885069580445E-06
(PID.TID 0000.0001) %MON dynstat_theta_max            =   2.9801026936309E+01
(PID.TID 0000.0001) %MON dynstat_theta_min            =  -1.9323019916750E+00
(PID.TID 0000.0001) %MON dynstat_theta_mean           =   3.5891298961564E+00
(PID.TID 0000.0001) %MON dynstat_theta_sd             =   4.3341274864468E+00
(PID.TID 0000.0001) %MON dynstat_theta_del2           =   1.2869220135437E-01
(PID.TID 0000.0001) %MON dynstat_salt_max             =   3.7392694596440E+01
(PID.TID 0000.0001) %MON dynstat_salt_min             =   2.9741239968096E+01
(PID.TID 0000.0001) %MON dynstat_salt_mean            =   3.4715995793173E+01
(PID.TID 0000.0001) %MON dynstat_salt_sd              =   2.9366342114705E-01
(PID.TID 0000.0001) %MON dynstat_salt_del2            =   2.3159299098623E-02
(PID.TID 0000.0001) %MON advcfl_uvel_max              =   3.0151970728522E-02
(PID.TID 0000.0001) %MON advcfl_vvel_max              =   1.7077641395815E-02
(PID.TID 0000.0001) %MON advcfl_wvel_max              =   7.7547696399462E-02
(PID.TID 0000.0001) %MON advcfl_W_hf_max              =   7.5342322839829E-02
(PID.TID 0000.0001) %MON pe_b_mean                    =   2.6969106288809E-04
(PID.TID 0000.0001) %MON ke_max                       =   1.8853914054435E-02
(PID.TID 0000.0001) %MON ke_mean                      =   2.2051876875347E-04
(PID.TID 0000.0001) %MON ke_vol                       =   1.3226782436723E+18
(PID.TID 0000.0001) %MON vort_r_min                   =  -7.2136501539948E-07
(PID.TID 0000.0001) %MON vort_r_max                   =   7.2000002455053E-07
(PID.TID 0000.0001) %MON vort_a_mean                  =  -2.5205768064977E-05
(PID.TID 0000.0001) %MON vort_a_sd                    =   7.3403505079423E-05
(PID.TID 0000.0001) %MON vort_p_mean                  =  -3.1758667883638E-05
(PID.TID 0000.0001) %MON vort_p_sd                    =   1.3126262092047E-04
(PID.TID 0000.0001) %MON surfExpan_theta_mean         =   1.0866830248126E-05
(PID.TID 0000.0001) %MON surfExpan_salt_mean          =  -1.6573984311489E-07
(PID.TID 0000.0001) // =======================================================
(PID.TID 0000.0001) // End MONITOR dynamic field statistics
(PID.TID 0000.0001) // =======================================================
 S/R EXTERNAL_FIELDS_LOAD: Reading new data  3888000. 90
(PID.TID 0000.0001)  MDSREADFIELD: opening global file: trenberth_taux.bin
(PID.TID 0000.0001)  MDSREADFIELD: opening global file: trenberth_taux.bin
(PID.TID 0000.0001)  MDSREADFIELD: opening global file: trenberth_tauy.bin
(PID.TID 0000.0001)  MDSREADFIELD: opening global file: trenberth_tauy.bin
(PID.TID 0000.0001)  MDSREADFIELD: opening global file: ncep_qnet.bin
(PID.TID 0000.0001)  MDSREADFIELD: opening global file: ncep_qnet.bin
(PID.TID 0000.0001)  MDSREADFIELD: opening global file: lev_sst.bin
(PID.TID 0000.0001)  MDSREADFIELD: opening global file: lev_sst.bin
(PID.TID 0000.0001)  MDSREADFIELD: opening global file: lev_sss.bin
(PID.TID 0000.0001)  MDSREADFIELD: opening global file: lev_sss.bin
time,SST,SSS,fu,fv,Q,E-P,i0,i1,a,b =   3.8880E+06 -5.3186E-01  3.4421E+01 -1.4435E-02 -1.7636E-02  2.4048E+02  0.0000E+00     2     3  0.0000E+00  1.0000E+00
time,fu0,fu1,fu =   3.8880E+06 -1.4435E-02 -2.7199E-02 -1.4435E-02  0.0000E+00  1.0000E+00
 cg2d: Sum(rhs),rhsMax =  -5.66185986983214E-13  8.25636816468043E+00
(PID.TID 0000.0001)                    cg2d_init_res =    3.45114611329409E-01
(PID.TID 0000.0001)                       cg2d_iters =    24
(PID.TID 0000.0001)                         cg2d_res =    5.11144814150514E-14
(PID.TID 0000.0001) // =======================================================
(PID.TID 0000.0001) // Begin MONITOR dynamic field statistics
(PID.TID 0000.0001) // =======================================================
(PID.TID 0000.0001) %MON time_tsnumber                =                    91
(PID.TID 0000.0001) %MON time_secondsf                =   3.9312000000000E+06
(PID.TID 0000.0001) %MON dynstat_eta_max              =   9.2167338601213E-01
(PID.TID 0000.0001) %MON dynstat_eta_min              =  -1.3506391083080E+00
(PID.TID 0000.0001) %MON dynstat_eta_mean             =  -3.5177444084651E-17
(PID.TID 0000.0001) %MON dynstat_eta_sd               =   4.5986487908440E-01
(PID.TID 0000.0001) %MON dynstat_eta_del2             =   1.8943281504479E-02
(PID.TID 0000.0001) %MON dynstat_uvel_max             =   1.8512923025150E-01
(PID.TID 0000.0001) %MON dynstat_uvel_min             =  -1.5821292132822E-01
(PID.TID 0000.0001) %MON dynstat_uvel_mean            =   1.0033227192030E-03
(PID.TID 0000.0001) %MON dynstat_uvel_sd              =   1.5906354859959E-02
(PID.TID 0000.0001) %MON dynstat_uvel_del2            =   4.8941949421445E-03
(PID.TID 0000.0001) %MON dynstat_vvel_max             =   1.7424416322405E-01
(PID.TID 0000.0001) %MON dynstat_vvel_min             =  -1.5103679369061E-01
(PID.TID 0000.0001) %MON dynstat_vvel_mean            =  -2.2989609112186E-04
(PID.TID 0000.0001) %MON dynstat_vvel_sd              =   1.5076224416730E-02
(PID.TID 0000.0001) %MON dynstat_vvel_del2            =   4.4283768705914E-03
(PID.TID 0000.0001) %MON dynstat_wvel_max             =   3.8862170218839E-04
(PID.TID 0000.0001) %MON dynstat_wvel_min             =  -2.1430758446395E-04
(PID.TID 0000.0001) %MON dynstat_wvel_mean            =  -1.9268940445116E-22
(PID.TID 0000.0001) %MON dynstat_wvel_sd              =   2.1865058057684E-05
(PID.TID 0000.0001) %MON dynstat_wvel_del2            =   8.6363611802702E-06
(PID.TID 0000.0001) %MON dynstat_theta_max            =   2.9803581083489E+01
(PID.TID 0000.0001) %MON dynstat_theta_min            =  -1.9323457375449E+00
(PID.TID 0000.0001) %MON dynstat_theta_mean           =   3.5890644654599E+00
(PID.TID 0000.0001) %MON dynstat_theta_sd             =   4.3340094646950E+00
(PID.TID 0000.0001) %MON dynstat_theta_del2           =   1.2870684615659E-01
(PID.TID 0000.0001) %MON dynstat_salt_max             =   3.7392353495037E+01
(PID.TID 0000.0001) %MON dynstat_salt_min             =   2.9739348049791E+01
(PID.TID 0000.0001) %MON dynstat_salt_mean            =   3.4715997731465E+01
(PID.TID 0000.0001) %MON dynstat_salt_sd              =   2.9364526318185E-01
(PID.TID 0000.0001) %MON dynstat_salt_del2            =   2.3134298368172E-02
(PID.TID 0000.0001) %MON advcfl_uvel_max              =   3.0078803712140E-02
(PID.TID 0000.0001) %MON advcfl_vvel_max              =   1.6926423187015E-02
(PID.TID 0000.0001) %MON advcfl_wvel_max              =   8.5892752622325E-02
(PID.TID 0000.0001) %MON advcfl_W_hf_max              =   8.2899076831251E-02
(PID.TID 0000.0001) %MON pe_b_mean                    =   2.7060865689170E-04
(PID.TID 0000.0001) %MON ke_max                       =   1.8198609563012E-02
(PID.TID 0000.0001) %MON ke_mean                      =   2.1746989106272E-04
(PID.TID 0000.0001) %MON ke_vol                       =   1.3226782436723E+18
(PID.TID 0000.0001) %MON vort_r_min                   =  -7.0797476117390E-07
(PID.TID 0000.0001) %MON vort_r_max                   =   7.1603622024384E-07
(PID.TID 0000.0001) %MON vort_a_mean                  =  -2.5205768098283E-05
(PID.TID 0000.0001) %MON vort_a_sd                    =   7.3403500446217E-05
(PID.TID 0000.0001) %MON vort_p_mean                  =  -3.1758667925603E-05
(PID.TID 0000.0001) %MON vort_p_sd                    =   1.3126258012898E-04
(PID.TID 0000.0001) %MON surfExpan_theta_mean         =   1.0397084645208E-05
(PID.TID 0000.0001) %MON surfExpan_salt_mean          =  -1.7827761418980E-07
(PID.TID 0000.0001) // =======================================================
(PID.TID 0000.0001) // End MONITOR dynamic field statistics
(PID.TID 0000.0001) // =======================================================
time,SST,SSS,fu,fv,Q,E-P,i0,i1,a,b =   3.9312E+06 -5.2606E-01  3.4424E+01 -1.4647E-02 -1.7351E-02  2.4006E+02  0.0000E+00     2     3  1.6667E-02  9.8333E-01
time,fu0,fu1,fu =   3.9312E+06 -1.4435E-02 -2.7199E-02 -1.4647E-02  1.6667E-02  9.8333E-01
 cg2d: Sum(rhs),rhsMax =   6.37268016134840E-14  7.68566249323726E+00
(PID.TID 0000.0001)                    cg2d_init_res =    3.72769256636959E-01
(PID.TID 0000.0001)                       cg2d_iters =    24
(PID.TID 0000.0001)                         cg2d_res =    5.81322387950240E-14
(PID.TID 0000.0001) // =======================================================
(PID.TID 0000.0001) // Begin MONITOR dynamic field statistics
(PID.TID 0000.0001) // =======================================================
(PID.TID 0000.0001) %MON time_tsnumber                =                    92
(PID.TID 0000.0001) %MON time_secondsf                =   3.9744000000000E+06
(PID.TID 0000.0001) %MON dynstat_eta_max              =   8.5761815459087E-01
(PID.TID 0000.0001) %MON dynstat_eta_min              =  -1.3615598415953E+00
(PID.TID 0000.0001) %MON dynstat_eta_mean             =   2.1393962591422E-16
(PID.TID 0000.0001) %MON dynstat_eta_sd               =   4.6063836544956E-01
(PID.TID 0000.0001) %MON dynstat_eta_del2             =   1.8829248480767E-02
(PID.TID 0000.0001) %MON dynstat_uvel_max             =   1.7928007432258E-01
(PID.TID 0000.0001) %MON dynstat_uvel_min             =  -1.5818462691900E-01
(PID.TID 0000.0001) %MON dynstat_uvel_mean            =   9.9968531345894E-04
(PID.TID 0000.0001) %MON dynstat_uvel_sd              =   1.5749721047937E-02
(PID.TID 0000.0001) %MON dynstat_uvel_del2            =   4.8867491645775E-03
(PID.TID 0000.0001) %MON dynstat_vvel_max             =   1.7254668360427E-01
(PID.TID 0000.0001) %MON dynstat_vvel_min             =  -1.5109885777511E-01
(PID.TID 0000.0001) %MON dynstat_vvel_mean            =  -1.3768511950254E-04
(PID.TID 0000.0001) %MON dynstat_vvel_sd              =   1.5038664918527E-02
(PID.TID 0000.0001) %MON dynstat_vvel_del2            =   4.4124166517185E-03
(PID.TID 0000.0001) %MON dynstat_wvel_max             =   3.8841262599170E-04
(PID.TID 0000.0001) %MON dynstat_wvel_min             =  -2.1108466449208E-04
(PID.TID 0000.0001) %MON dynstat_wvel_mean            =   1.1875605262418E-22
(PID.TID 0000.0001) %MON dynstat_wvel_sd              =   2.1768601391426E-05
(PID.TID 0000.0001) %MON dynstat_wvel_del2            =   8.5813244732010E-06
(PID.TID 0000.0001) %MON dynstat_theta_max            =   2.9805945228325E+01
(PID.TID 0000.0001) %MON dynstat_theta_min            =  -1.9322044623910E+00
(PID.TID 0000.0001) %MON dynstat_theta_mean           =   3.5890037932082E+00
(PID.TID 0000.0001) %MON dynstat_theta_sd             =   4.3339033643494E+00
(PID.TID 0000.0001) %MON dynstat_theta_del2           =   1.2870411873217E-01
(PID.TID 0000.0001) %MON dynstat_salt_max             =   3.7391992543822E+01
(PID.TID 0000.0001) %MON dynstat_salt_min             =   2.9737464243634E+01
(PID.TID 0000.0001) %MON dynstat_salt_mean            =   3.4715999621457E+01
(PID.TID 0000.0001) %MON dynstat_salt_sd              =   2.9362624670798E-01
(PID.TID 0000.0001) %MON dynstat_salt_del2            =   2.3108446579902E-02
(PID.TID 0000.0001) %MON advcfl_uvel_max              =   3.0003120973803E-02
(PID.TID 0000.0001) %MON advcfl_vvel_max              =   1.6761526654104E-02
(PID.TID 0000.0001) %MON advcfl_wvel_max              =   9.2239533246616E-02
(PID.TID 0000.0001) %MON advcfl_W_hf_max              =   8.8533365013678E-02
(PID.TID 0000.0001) %MON pe_b_mean                    =   2.7151974249950E-04
(PID.TID 0000.0001) %MON ke_max                       =   1.7497690574664E-02
(PID.TID 0000.0001) %MON ke_mean                      =   2.1469088210806E-04
(PID.TID 0000.0001) %MON ke_vol                       =   1.3226782436723E+18
(PID.TID 0000.0001) %MON vort_r_min                   =  -6.9559892141772E-07
(PID.TID 0000.0001) %MON vort_r_max                   =   7.1140518017906E-07
(PID.TID 0000.0001) %MON vort_a_mean                  =  -2.5205768132533E-05
(PID.TID 0000.0001) %MON vort_a_sd                    =   7.3403495242706E-05
(PID.TID 0000.0001) %MON vort_p_mean                  =  -3.1758667968757E-05
(PID.TID 0000.0001) %MON vort_p_sd                    =   1.3126253425078E-04
(PID.TID 0000.0001) %MON surfExpan_theta_mean         =   9.9295325336459E-06
(PID.TID 0000.0001) %MON surfExpan_salt_mean          =  -1.8027192927677E-07
(PID.TID 0000.0001) // =======================================================
(PID.TID 0000.0001) // End MONITOR dynamic field statistics
(PID.TID 0000.0001) // =======================================================
time,SST,SSS,fu,fv,Q,E-P,i0,i1,a,b =   3.9744E+06 -5.2026E-01  3.4426E+01 -1.4860E-02 -1.7067E-02  2.3964E+02  0.0000E+00     2     3  3.3333E-02  9.6667E-01
time,fu0,fu1,fu =   3.9744E+06 -1.4435E-02 -2.7199E-02 -1.4860E-02  3.3333E-02  9.6667E-01
 cg2d: Sum(rhs),rhsMax =   2.98372437868011E-14  7.08797912645671E+00
(PID.TID 0000.0001)                    cg2d_init_res =    4.04130341484176E-01
(PID.TID 0000.0001)                       cg2d_iters =    24
(PID.TID 0000.0001)                         cg2d_res =    6.51790807622502E-14
(PID.TID 0000.0001) // =======================================================
(PID.TID 0000.0001) // Begin MONITOR dynamic field statistics
(PID.TID 0000.0001) // =======================================================
(PID.TID 0000.0001) %MON time_tsnumber                =                    93
(PID.TID 0000.0001) %MON time_secondsf                =   4.0176000000000E+06
(PID.TID 0000.0001) %MON dynstat_eta_max              =   7.9058003964781E-01
(PID.TID 0000.0001) %MON dynstat_eta_min              =  -1.3710531702126E+00
(PID.TID 0000.0001) %MON dynstat_eta_mean             =  -2.1508026958659E-16
(PID.TID 0000.0001) %MON dynstat_eta_sd               =   4.6142342723497E-01
(PID.TID 0000.0001) %MON dynstat_eta_del2             =   1.8722837786665E-02
(PID.TID 0000.0001) %MON dynstat_uvel_max             =   1.7319419784531E-01
(PID.TID 0000.0001) %MON dynstat_uvel_min             =  -1.5801339592422E-01
(PID.TID 0000.0001) %MON dynstat_uvel_mean            =   9.9388887229637E-04
(PID.TID 0000.0001) %MON dynstat_uvel_sd              =   1.5612815935179E-02
(PID.TID 0000.0001) %MON dynstat_uvel_del2            =   4.8782869025471E-03
(PID.TID 0000.0001) %MON dynstat_vvel_max             =   1.7072796757008E-01
(PID.TID 0000.0001) %MON dynstat_vvel_min             =  -1.5107601785512E-01
(PID.TID 0000.0001) %MON dynstat_vvel_mean            =  -4.3116813020687E-05
(PID.TID 0000.0001) %MON dynstat_vvel_sd              =   1.4999199562476E-02
(PID.TID 0000.0001) %MON dynstat_vvel_del2            =   4.3946304179088E-03
(PID.TID 0000.0001) %MON dynstat_wvel_max             =   3.8797434775553E-04
(PID.TID 0000.0001) %MON dynstat_wvel_min             =  -2.0792967202717E-04
(PID.TID 0000.0001) %MON dynstat_wvel_mean            =   8.1609638816706E-23
(PID.TID 0000.0001) %MON dynstat_wvel_sd              =   2.1666861090800E-05
(PID.TID 0000.0001) %MON dynstat_wvel_del2            =   8.5212617481458E-06
(PID.TID 0000.0001) %MON dynstat_theta_max            =   2.9808199463388E+01
(PID.TID 0000.0001) %MON dynstat_theta_min            =  -1.9320859301116E+00
(PID.TID 0000.0001) %MON dynstat_theta_mean           =   3.5889479479717E+00
(PID.TID 0000.0001) %MON dynstat_theta_sd             =   4.3338089849415E+00
(PID.TID 0000.0001) %MON dynstat_theta_del2           =   1.2869591026820E-01
(PID.TID 0000.0001) %MON dynstat_salt_max             =   3.7391615253707E+01
(PID.TID 0000.0001) %MON dynstat_salt_min             =   2.9735589871201E+01
(PID.TID 0000.0001) %MON dynstat_salt_mean            =   3.4716001374737E+01
(PID.TID 0000.0001) %MON dynstat_salt_sd              =   2.9360592935428E-01
(PID.TID 0000.0001) %MON dynstat_salt_del2            =   2.3084544250966E-02
(PID.TID 0000.0001) %MON advcfl_uvel_max              =   2.9924615683138E-02
(PID.TID 0000.0001) %MON advcfl_vvel_max              =   1.6584852975732E-02
(PID.TID 0000.0001) %MON advcfl_wvel_max              =   9.6534885518001E-02
(PID.TID 0000.0001) %MON advcfl_W_hf_max              =   9.2194017017533E-02
(PID.TID 0000.0001) %MON pe_b_mean                    =   2.7244602842337E-04
(PID.TID 0000.0001) %MON ke_max                       =   1.7082727087145E-02
(PID.TID 0000.0001) %MON ke_mean                      =   2.1219506428602E-04
(PID.TID 0000.0001) %MON ke_vol                       =   1.3226782436723E+18
(PID.TID 0000.0001) %MON vort_r_min                   =  -6.8434488341569E-07
(PID.TID 0000.0001) %MON vort_r_max                   =   7.0617940345728E-07
(PID.TID 0000.0001) %MON vort_a_mean                  =  -2.5205768167625E-05
(PID.TID 0000.0001) %MON vort_a_sd                    =   7.3403489566806E-05
(PID.TID 0000.0001) %MON vort_p_mean                  =  -3.1758668012973E-05
(PID.TID 0000.0001) %MON vort_p_sd                    =   1.3126248348513E-04
(PID.TID 0000.0001) %MON surfExpan_theta_mean         =   9.4682530739229E-06
(PID.TID 0000.0001) %MON surfExpan_salt_mean          =  -1.7325265775184E-07
(PID.TID 0000.0001) // =======================================================
(PID.TID 0000.0001) // End MONITOR dynamic field statistics
(PID.TID 0000.0001) // =======================================================
time,SST,SSS,fu,fv,Q,E-P,i0,i1,a,b =   4.0176E+06 -5.1446E-01  3.4429E+01 -1.5073E-02 -1.6783E-02  2.3923E+02  0.0000E+00     2     3  5.0000E-02  9.5000E-01
time,fu0,fu1,fu =   4.0176E+06 -1.4435E-02 -2.7199E-02 -1.5073E-02  5.0000E-02  9.5000E-01
 cg2d: Sum(rhs),rhsMax =  -1.00988661877466E-13  6.77027639984086E+00
(PID.TID 0000.0001)                    cg2d_init_res =    4.20314759386529E-01
(PID.TID 0000.0001)                       cg2d_iters =    24
(PID.TID 0000.0001)                         cg2d_res =    6.93432871461241E-14
(PID.TID 0000.0001) // =======================================================
(PID.TID 0000.0001) // Begin MONITOR dynamic field statistics
(PID.TID 0000.0001) // =======================================================
(PID.TID 0000.0001) %MON time_tsnumber                =                    94
(PID.TID 0000.0001) %MON time_secondsf                =   4.0608000000000E+06
(PID.TID 0000.0001) %MON dynstat_eta_max              =   7.6205428063233E-01
(PID.TID 0000.0001) %MON dynstat_eta_min              =  -1.3787938591766E+00
(PID.TID 0000.0001) %MON dynstat_eta_mean             =  -1.3541288220732E-16
(PID.TID 0000.0001) %MON dynstat_eta_sd               =   4.6223510517341E-01
(PID.TID 0000.0001) %MON dynstat_eta_del2             =   1.8618850069443E-02
(PID.TID 0000.0001) %MON dynstat_uvel_max             =   1.6694453084354E-01
(PID.TID 0000.0001) %MON dynstat_uvel_min             =  -1.5771692269430E-01
(PID.TID 0000.0001) %MON dynstat_uvel_mean            =   9.8631873388166E-04
(PID.TID 0000.0001) %MON dynstat_uvel_sd              =   1.5497466814365E-02
(PID.TID 0000.0001) %MON dynstat_uvel_del2            =   4.8685138310895E-03
(PID.TID 0000.0001) %MON dynstat_vvel_max             =   1.6881301312529E-01
(PID.TID 0000.0001) %MON dynstat_vvel_min             =  -1.5095768940845E-01
(PID.TID 0000.0001) %MON dynstat_vvel_mean            =   5.3904590975207E-05
(PID.TID 0000.0001) %MON dynstat_vvel_sd              =   1.4957252627379E-02
(PID.TID 0000.0001) %MON dynstat_vvel_del2            =   4.3761786234495E-03
(PID.TID 0000.0001) %MON dynstat_wvel_max             =   3.8728265727544E-04
(PID.TID 0000.0001) %MON dynstat_wvel_min             =  -2.0486069292376E-04
(PID.TID 0000.0001) %MON dynstat_wvel_mean            =  -1.7869240485404E-22
(PID.TID 0000.0001) %MON dynstat_wvel_sd              =   2.1558817766461E-05
(PID.TID 0000.0001) %MON dynstat_wvel_del2            =   8.4566681740516E-06
(PID.TID 0000.0001) %MON dynstat_theta_max            =   2.9810405219796E+01
(PID.TID 0000.0001) %MON dynstat_theta_min            =  -1.9319237839067E+00
(PID.TID 0000.0001) %MON dynstat_theta_mean           =   3.5888967878583E+00
(PID.TID 0000.0001) %MON dynstat_theta_sd             =   4.3337270132328E+00
(PID.TID 0000.0001) %MON dynstat_theta_del2           =   1.2874879419676E-01
(PID.TID 0000.0001) %MON dynstat_salt_max             =   3.7391224649559E+01
(PID.TID 0000.0001) %MON dynstat_salt_min             =   2.9733726466375E+01
(PID.TID 0000.0001) %MON dynstat_salt_mean            =   3.4716002923635E+01
(PID.TID 0000.0001) %MON dynstat_salt_sd              =   2.9358443382595E-01
(PID.TID 0000.0001) %MON dynstat_salt_del2            =   2.3073352337475E-02
(PID.TID 0000.0001) %MON advcfl_uvel_max              =   2.9842915851453E-02
(PID.TID 0000.0001) %MON advcfl_vvel_max              =   1.6398830507508E-02
(PID.TID 0000.0001) %MON advcfl_wvel_max              =   9.8758972835836E-02
(PID.TID 0000.0001) %MON advcfl_W_hf_max              =   9.3865804207844E-02
(PID.TID 0000.0001) %MON pe_b_mean                    =   2.7340537689616E-04
(PID.TID 0000.0001) %MON ke_max                       =   1.6804338350877E-02
(PID.TID 0000.0001) %MON ke_mean                      =   2.0999425959222E-04
(PID.TID 0000.0001) %MON ke_vol                       =   1.3226782436723E+18
(PID.TID 0000.0001) %MON vort_r_min                   =  -6.7418030303465E-07
(PID.TID 0000.0001) %MON vort_r_max                   =   7.0045621291556E-07
(PID.TID 0000.0001) %MON vort_a_mean                  =  -2.5205768203312E-05
(PID.TID 0000.0001) %MON vort_a_sd                    =   7.3403483527029E-05
(PID.TID 0000.0001) %MON vort_p_mean                  =  -3.1758668057937E-05
(PID.TID 0000.0001) %MON vort_p_sd                    =   1.3126242810456E-04
(PID.TID 0000.0001) %MON surfExpan_theta_mean         =   9.0178212110112E-06
(PID.TID 0000.0001) %MON surfExpan_salt_mean          =  -1.5905285679562E-07
(PID.TID 0000.0001) // =======================================================
(PID.TID 0000.0001) // End MONITOR dynamic field statistics
(PID.TID 0000.0001) // =======================================================
time,SST,SSS,fu,fv,Q,E-P,i0,i1,a,b =   4.0608E+06 -5.0866E-01  3.4432E+01 -1.5286E-02 -1.6498E-02  2.3881E+02  0.0000E+00     2     3  6.6667E-02  9.3333E-01
time,fu0,fu1,fu =   4.0608E+06 -1.4435E-02 -2.7199E-02 -1.5286E-02  6.6667E-02  9.3333E-01
 cg2d: Sum(rhs),rhsMax =   3.73534536635134E-13  6.73808728290169E+00
(PID.TID 0000.0001)                    cg2d_init_res =    4.16725849488082E-01
(PID.TID 0000.0001)                       cg2d_iters =    24
(PID.TID 0000.0001)                         cg2d_res =    7.13640586120306E-14
(PID.TID 0000.0001) // =======================================================
(PID.TID 0000.0001) // Begin MONITOR dynamic field statistics
(PID.TID 0000.0001) // =======================================================
(PID.TID 0000.0001) %MON time_tsnumber                =                    95
(PID.TID 0000.0001) %MON time_secondsf                =   4.1040000000000E+06
(PID.TID 0000.0001) %MON dynstat_eta_max              =   7.5854583626392E-01
(PID.TID 0000.0001) %MON dynstat_eta_min              =  -1.3845667234589E+00
(PID.TID 0000.0001) %MON dynstat_eta_mean             =   1.1859838515535E-17
(PID.TID 0000.0001) %MON dynstat_eta_sd               =   4.6308448587977E-01
(PID.TID 0000.0001) %MON dynstat_eta_del2             =   1.8593138532383E-02
(PID.TID 0000.0001) %MON dynstat_uvel_max             =   1.6420561472728E-01
(PID.TID 0000.0001) %MON dynstat_uvel_min             =  -1.5731220600949E-01
(PID.TID 0000.0001) %MON dynstat_uvel_mean            =   9.7737537026031E-04
(PID.TID 0000.0001) %MON dynstat_uvel_sd              =   1.5405217193317E-02
(PID.TID 0000.0001) %MON dynstat_uvel_del2            =   4.8572431329226E-03
(PID.TID 0000.0001) %MON dynstat_vvel_max             =   1.6685093502889E-01
(PID.TID 0000.0001) %MON dynstat_vvel_min             =  -1.5073509329856E-01
(PID.TID 0000.0001) %MON dynstat_vvel_mean            =   1.5331996992757E-04
(PID.TID 0000.0001) %MON dynstat_vvel_sd              =   1.4912418031269E-02
(PID.TID 0000.0001) %MON dynstat_vvel_del2            =   4.3577870504994E-03
(PID.TID 0000.0001) %MON dynstat_wvel_max             =   3.8631506421108E-04
(PID.TID 0000.0001) %MON dynstat_wvel_min             =  -2.0189367983119E-04
(PID.TID 0000.0001) %MON dynstat_wvel_mean            =  -5.3257720588524E-23
(PID.TID 0000.0001) %MON dynstat_wvel_sd              =   2.1444131225480E-05
(PID.TID 0000.0001) %MON dynstat_wvel_del2            =   8.3929995231532E-06
(PID.TID 0000.0001) %MON dynstat_theta_max            =   2.9812625411767E+01
(PID.TID 0000.0001) %MON dynstat_theta_min            =  -1.9317129280210E+00
(PID.TID 0000.0001) %MON dynstat_theta_mean           =   3.5888501710787E+00
(PID.TID 0000.0001) %MON dynstat_theta_sd             =   4.3336578021900E+00
(PID.TID 0000.0001) %MON dynstat_theta_del2           =   1.2875311268340E-01
(PID.TID 0000.0001) %MON dynstat_salt_max             =   3.7390823420840E+01
(PID.TID 0000.0001) %MON dynstat_salt_min             =   2.9731875812595E+01
(PID.TID 0000.0001) %MON dynstat_salt_mean            =   3.4716004226534E+01
(PID.TID 0000.0001) %MON dynstat_salt_sd              =   2.9356245010419E-01
(PID.TID 0000.0001) %MON dynstat_salt_del2            =   2.3047702244450E-02
(PID.TID 0000.0001) %MON advcfl_uvel_max              =   2.9757553039281E-02
(PID.TID 0000.0001) %MON advcfl_vvel_max              =   1.6208230354418E-02
(PID.TID 0000.0001) %MON advcfl_wvel_max              =   9.9039968395365E-02
(PID.TID 0000.0001) %MON advcfl_W_hf_max              =   9.3570757800743E-02
(PID.TID 0000.0001) %MON pe_b_mean                    =   2.7441109287253E-04
(PID.TID 0000.0001) %MON ke_max                       =   1.6507193247390E-02
(PID.TID 0000.0001) %MON ke_mean                      =   2.0809916274121E-04
(PID.TID 0000.0001) %MON ke_vol                       =   1.3226782436723E+18
(PID.TID 0000.0001) %MON vort_r_min                   =  -6.6509603936461E-07
(PID.TID 0000.0001) %MON vort_r_max                   =   6.9433068554707E-07
(PID.TID 0000.0001) %MON vort_a_mean                  =  -2.5205768239386E-05
(PID.TID 0000.0001) %MON vort_a_sd                    =   7.3403477237977E-05
(PID.TID 0000.0001) %MON vort_p_mean                  =  -3.1758668103390E-05
(PID.TID 0000.0001) %MON vort_p_sd                    =   1.3126236847042E-04
(PID.TID 0000.0001) %MON surfExpan_theta_mean         =   8.5794999894155E-06
(PID.TID 0000.0001) %MON surfExpan_salt_mean          =  -1.3999240412215E-07
(PID.TID 0000.0001) // =======================================================
(PID.TID 0000.0001) // End MONITOR dynamic field statistics
(PID.TID 0000.0001) // =======================================================
time,SST,SSS,fu,fv,Q,E-P,i0,i1,a,b =   4.1040E+06 -5.0286E-01  3.4434E+01 -1.5498E-02 -1.6214E-02  2.3839E+02  0.0000E+00     2     3  8.3333E-02  9.1667E-01
time,fu0,fu1,fu =   4.1040E+06 -1.4435E-02 -2.7199E-02 -1.5498E-02  8.3333E-02  9.1667E-01
 cg2d: Sum(rhs),rhsMax =  -3.50539042237585E-13  6.70168373423965E+00
(PID.TID 0000.0001)                    cg2d_init_res =    4.10693251654382E-01
(PID.TID 0000.0001)                       cg2d_iters =    24
(PID.TID 0000.0001)                         cg2d_res =    7.16653416663256E-14
(PID.TID 0000.0001) // =======================================================
(PID.TID 0000.0001) // Begin MONITOR dynamic field statistics
(PID.TID 0000.0001) // =======================================================
(PID.TID 0000.0001) %MON time_tsnumber                =                    96
(PID.TID 0000.0001) %MON time_secondsf                =   4.1472000000000E+06
(PID.TID 0000.0001) %MON dynstat_eta_max              =   7.5463243244420E-01
(PID.TID 0000.0001) %MON dynstat_eta_min              =  -1.3882660099482E+00
(PID.TID 0000.0001) %MON dynstat_eta_mean             =  -1.3372006610568E-16
(PID.TID 0000.0001) %MON dynstat_eta_sd               =   4.6397846683167E-01
(PID.TID 0000.0001) %MON dynstat_eta_del2             =   1.8630329230842E-02
(PID.TID 0000.0001) %MON dynstat_uvel_max             =   1.6264508759568E-01
(PID.TID 0000.0001) %MON dynstat_uvel_min             =  -1.5681493536020E-01
(PID.TID 0000.0001) %MON dynstat_uvel_mean            =   9.6746431573291E-04
(PID.TID 0000.0001) %MON dynstat_uvel_sd              =   1.5337214282720E-02
(PID.TID 0000.0001) %MON dynstat_uvel_del2            =   4.8442137836093E-03
(PID.TID 0000.0001) %MON dynstat_vvel_max             =   1.6716089328723E-01
(PID.TID 0000.0001) %MON dynstat_vvel_min             =  -1.5040165288856E-01
(PID.TID 0000.0001) %MON dynstat_vvel_mean            =   2.5490708301449E-04
(PID.TID 0000.0001) %MON dynstat_vvel_sd              =   1.4864528584093E-02
(PID.TID 0000.0001) %MON dynstat_vvel_del2            =   4.3386066590064E-03
(PID.TID 0000.0001) %MON dynstat_wvel_max             =   3.8505178203187E-04
(PID.TID 0000.0001) %MON dynstat_wvel_min             =  -1.9904255038815E-04
(PID.TID 0000.0001) %MON dynstat_wvel_mean            =  -1.0136734515305E-22
(PID.TID 0000.0001) %MON dynstat_wvel_sd              =   2.1323276023822E-05
(PID.TID 0000.0001) %MON dynstat_wvel_del2            =   8.3295770265110E-06
(PID.TID 0000.0001) %MON dynstat_theta_max            =   2.9814921532840E+01
(PID.TID 0000.0001) %MON dynstat_theta_min            =  -1.9314502186070E+00
(PID.TID 0000.0001) %MON dynstat_theta_mean           =   3.5888078683326E+00
(PID.TID 0000.0001) %MON dynstat_theta_sd             =   4.3336007794617E+00
(PID.TID 0000.0001) %MON dynstat_theta_del2           =   1.2879766196451E-01
(PID.TID 0000.0001) %MON dynstat_salt_max             =   3.7390413940309E+01
(PID.TID 0000.0001) %MON dynstat_salt_min             =   2.9730039888251E+01
(PID.TID 0000.0001) %MON dynstat_salt_mean            =   3.4716005260759E+01
(PID.TID 0000.0001) %MON dynstat_salt_sd              =   2.9353906494962E-01
(PID.TID 0000.0001) %MON dynstat_salt_del2            =   2.3027229500609E-02
(PID.TID 0000.0001) %MON advcfl_uvel_max              =   2.9667977003606E-02
(PID.TID 0000.0001) %MON advcfl_vvel_max              =   1.6238340313650E-02
(PID.TID 0000.0001) %MON advcfl_wvel_max              =   9.7361745256423E-02
(PID.TID 0000.0001) %MON advcfl_W_hf_max              =   9.1366613483021E-02
(PID.TID 0000.0001) %MON pe_b_mean                    =   2.7547161245380E-04
(PID.TID 0000.0001) %MON ke_max                       =   1.6196408938904E-02
(PID.TID 0000.0001) %MON ke_mean                      =   2.0651904923288E-04
(PID.TID 0000.0001) %MON ke_vol                       =   1.3226782436723E+18
(PID.TID 0000.0001) %MON vort_r_min                   =  -6.7303814572365E-07
(PID.TID 0000.0001) %MON vort_r_max                   =   6.8789310894237E-07
(PID.TID 0000.0001) %MON vort_a_mean                  =  -2.5205768275685E-05
(PID.TID 0000.0001) %MON vort_a_sd                    =   7.3403470816910E-05
(PID.TID 0000.0001) %MON vort_p_mean                  =  -3.1758668149126E-05
(PID.TID 0000.0001) %MON vort_p_sd                    =   1.3126230500338E-04
(PID.TID 0000.0001) %MON surfExpan_theta_mean         =   8.1557431300274E-06
(PID.TID 0000.0001) %MON surfExpan_salt_mean          =  -1.1783912166944E-07
(PID.TID 0000.0001) // =======================================================
(PID.TID 0000.0001) // End MONITOR dynamic field statistics
(PID.TID 0000.0001) // =======================================================
time,SST,SSS,fu,fv,Q,E-P,i0,i1,a,b =   4.1472E+06 -4.9706E-01  3.4437E+01 -1.5711E-02 -1.5930E-02  2.3797E+02  0.0000E+00     2     3  1.0000E-01  9.0000E-01
time,fu0,fu1,fu =   4.1472E+06 -1.4435E-02 -2.7199E-02 -1.5711E-02  1.0000E-01  9.0000E-01
 cg2d: Sum(rhs),rhsMax =  -2.83190138006262E-13  6.66306749649425E+00
(PID.TID 0000.0001)                    cg2d_init_res =    4.02429547581068E-01
(PID.TID 0000.0001)                       cg2d_iters =    24
(PID.TID 0000.0001)                         cg2d_res =    7.13283254148351E-14
(PID.TID 0000.0001) // =======================================================
(PID.TID 0000.0001) // Begin MONITOR dynamic field statistics
(PID.TID 0000.0001) // =======================================================
(PID.TID 0000.0001) %MON time_tsnumber                =                    97
(PID.TID 0000.0001) %MON time_secondsf                =   4.1904000000000E+06
(PID.TID 0000.0001) %MON dynstat_eta_max              =   7.5130225551944E-01
(PID.TID 0000.0001) %MON dynstat_eta_min              =  -1.3898890074030E+00
(PID.TID 0000.0001) %MON dynstat_eta_mean             =   5.4933772233676E-17
(PID.TID 0000.0001) %MON dynstat_eta_sd               =   4.6491988172961E-01
(PID.TID 0000.0001) %MON dynstat_eta_del2             =   1.8696227809523E-02
(PID.TID 0000.0001) %MON dynstat_uvel_max             =   1.6044860757186E-01
(PID.TID 0000.0001) %MON dynstat_uvel_min             =  -1.5623899110210E-01
(PID.TID 0000.0001) %MON dynstat_uvel_mean            =   9.5698603199621E-04
(PID.TID 0000.0001) %MON dynstat_uvel_sd              =   1.5294099721497E-02
(PID.TID 0000.0001) %MON dynstat_uvel_del2            =   4.8305772653695E-03
(PID.TID 0000.0001) %MON dynstat_vvel_max             =   1.6730297424383E-01
(PID.TID 0000.0001) %MON dynstat_vvel_min             =  -1.4995320323885E-01
(PID.TID 0000.0001) %MON dynstat_vvel_mean            =   3.5828388785134E-04
(PID.TID 0000.0001) %MON dynstat_vvel_sd              =   1.4813705149835E-02
(PID.TID 0000.0001) %MON dynstat_vvel_del2            =   4.3183927368054E-03
(PID.TID 0000.0001) %MON dynstat_wvel_max             =   3.8347632828598E-04
(PID.TID 0000.0001) %MON dynstat_wvel_min             =  -1.9731892710882E-04
(PID.TID 0000.0001) %MON dynstat_wvel_mean            =   1.6243886227191E-22
(PID.TID 0000.0001) %MON dynstat_wvel_sd              =   2.1197423785225E-05
(PID.TID 0000.0001) %MON dynstat_wvel_del2            =   8.2648026544810E-06
(PID.TID 0000.0001) %MON dynstat_theta_max            =   2.9817350850505E+01
(PID.TID 0000.0001) %MON dynstat_theta_min            =  -1.9311346053248E+00
(PID.TID 0000.0001) %MON dynstat_theta_mean           =   3.5887697146209E+00
(PID.TID 0000.0001) %MON dynstat_theta_sd             =   4.3335563109458E+00
(PID.TID 0000.0001) %MON dynstat_theta_del2           =   1.2885686405706E-01
(PID.TID 0000.0001) %MON dynstat_salt_max             =   3.7389999865639E+01
(PID.TID 0000.0001) %MON dynstat_salt_min             =   2.9728220804747E+01
(PID.TID 0000.0001) %MON dynstat_salt_mean            =   3.4716006029602E+01
(PID.TID 0000.0001) %MON dynstat_salt_sd              =   2.9351494590713E-01
(PID.TID 0000.0001) %MON dynstat_salt_del2            =   2.3001630928952E-02
(PID.TID 0000.0001) %MON advcfl_uvel_max              =   2.9573534433061E-02
(PID.TID 0000.0001) %MON advcfl_vvel_max              =   1.6252142339231E-02
(PID.TID 0000.0001) %MON advcfl_wvel_max              =   9.3810024545165E-02
(PID.TID 0000.0001) %MON advcfl_W_hf_max              =   8.7345665041152E-02
(PID.TID 0000.0001) %MON pe_b_mean                    =   2.7659061341016E-04
(PID.TID 0000.0001) %MON ke_max                       =   1.5876728528513E-02
(PID.TID 0000.0001) %MON ke_mean                      =   2.0526118823517E-04
(PID.TID 0000.0001) %MON ke_vol                       =   1.3226782436723E+18
(PID.TID 0000.0001) %MON vort_r_min                   =  -6.8922627573885E-07
(PID.TID 0000.0001) %MON vort_r_max                   =   6.8122669351918E-07
(PID.TID 0000.0001) %MON vort_a_mean                  =  -2.5205768312084E-05
(PID.TID 0000.0001) %MON vort_a_sd                    =   7.3403464380490E-05
(PID.TID 0000.0001) %MON vort_p_mean                  =  -3.1758668194988E-05
(PID.TID 0000.0001) %MON vort_p_sd                    =   1.3126223818068E-04
(PID.TID 0000.0001) %MON surfExpan_theta_mean         =   7.7471015135747E-06
(PID.TID 0000.0001) %MON surfExpan_salt_mean          =  -9.4622706826916E-08
(PID.TID 0000.0001) // =======================================================
(PID.TID 0000.0001) // End MONITOR dynamic field statistics
(PID.TID 0000.0001) // =======================================================
time,SST,SSS,fu,fv,Q,E-P,i0,i1,a,b =   4.1904E+06 -4.9126E-01  3.4440E+01 -1.5924E-02 -1.5646E-02  2.3755E+02  0.0000E+00     2     3  1.1667E-01  8.8333E-01
time,fu0,fu1,fu =   4.1904E+06 -1.4435E-02 -2.7199E-02 -1.5924E-02  1.1667E-01  8.8333E-01
 cg2d: Sum(rhs),rhsMax =  -4.45143921723457E-13  6.62464367603219E+00
(PID.TID 0000.0001)                    cg2d_init_res =    3.92361403904292E-01
(PID.TID 0000.0001)                       cg2d_iters =    24
(PID.TID 0000.0001)                         cg2d_res =    7.06016342680357E-14
(PID.TID 0000.0001) // =======================================================
(PID.TID 0000.0001) // Begin MONITOR dynamic field statistics
(PID.TID 0000.0001) // =======================================================
(PID.TID 0000.0001) %MON time_tsnumber                =                    98
(PID.TID 0000.0001) %MON time_secondsf                =   4.2336000000000E+06
(PID.TID 0000.0001) %MON dynstat_eta_max              =   7.7912952162795E-01
(PID.TID 0000.0001) %MON dynstat_eta_min              =  -1.3895249936026E+00
(PID.TID 0000.0001) %MON dynstat_eta_mean             =  -5.8451924299897E-17
(PID.TID 0000.0001) %MON dynstat_eta_sd               =   4.6590795887341E-01
(PID.TID 0000.0001) %MON dynstat_eta_del2             =   1.8756558869030E-02
(PID.TID 0000.0001) %MON dynstat_uvel_max             =   1.5765073727173E-01
(PID.TID 0000.0001) %MON dynstat_uvel_min             =  -1.5559606210512E-01
(PID.TID 0000.0001) %MON dynstat_uvel_mean            =   9.4632788126381E-04
(PID.TID 0000.0001) %MON dynstat_uvel_sd              =   1.5275912080135E-02
(PID.TID 0000.0001) %MON dynstat_uvel_del2            =   4.8153171787025E-03
(PID.TID 0000.0001) %MON dynstat_vvel_max             =   1.6727476224269E-01
(PID.TID 0000.0001) %MON dynstat_vvel_min             =  -1.4938819178667E-01
(PID.TID 0000.0001) %MON dynstat_vvel_mean            =   4.6291822230940E-04
(PID.TID 0000.0001) %MON dynstat_vvel_sd              =   1.4760380683498E-02
(PID.TID 0000.0001) %MON dynstat_vvel_del2            =   4.2980224644180E-03
(PID.TID 0000.0001) %MON dynstat_wvel_max             =   3.8157622255685E-04
(PID.TID 0000.0001) %MON dynstat_wvel_min             =  -1.9690816227763E-04
(PID.TID 0000.0001) %MON dynstat_wvel_mean            =   3.6836682471001E-22
(PID.TID 0000.0001) %MON dynstat_wvel_sd              =   2.1068332674140E-05
(PID.TID 0000.0001) %MON dynstat_wvel_del2            =   8.1939736916947E-06
(PID.TID 0000.0001) %MON dynstat_theta_max            =   2.9819963669960E+01
(PID.TID 0000.0001) %MON dynstat_theta_min            =  -1.9307670895083E+00
(PID.TID 0000.0001) %MON dynstat_theta_mean           =   3.5887354831595E+00
(PID.TID 0000.0001) %MON dynstat_theta_sd             =   4.3335251657923E+00
(PID.TID 0000.0001) %MON dynstat_theta_del2           =   1.2884708061312E-01
(PID.TID 0000.0001) %MON dynstat_salt_max             =   3.7389583288979E+01
(PID.TID 0000.0001) %MON dynstat_salt_min             =   2.9726420739616E+01
(PID.TID 0000.0001) %MON dynstat_salt_mean            =   3.4716006551087E+01
(PID.TID 0000.0001) %MON dynstat_salt_sd              =   2.9349012146192E-01
(PID.TID 0000.0001) %MON dynstat_salt_del2            =   2.2974753466434E-02
(PID.TID 0000.0001) %MON advcfl_uvel_max              =   2.9473489093491E-02
(PID.TID 0000.0001) %MON advcfl_vvel_max              =   1.6249401769553E-02
(PID.TID 0000.0001) %MON advcfl_wvel_max              =   8.8509127959209E-02
(PID.TID 0000.0001) %MON advcfl_W_hf_max              =   8.1633328337562E-02
(PID.TID 0000.0001) %MON pe_b_mean                    =   2.7776751843699E-04
(PID.TID 0000.0001) %MON ke_max                       =   1.5683259604217E-02
(PID.TID 0000.0001) %MON ke_mean                      =   2.0432995595341E-04
(PID.TID 0000.0001) %MON ke_vol                       =   1.3226782436723E+18
(PID.TID 0000.0001) %MON vort_r_min                   =  -7.0510622207400E-07
(PID.TID 0000.0001) %MON vort_r_max                   =   6.7440573027671E-07
(PID.TID 0000.0001) %MON vort_a_mean                  =  -2.5205768348487E-05
(PID.TID 0000.0001) %MON vort_a_sd                    =   7.3403458041873E-05
(PID.TID 0000.0001) %MON vort_p_mean                  =  -3.1758668240855E-05
(PID.TID 0000.0001) %MON vort_p_sd                    =   1.3126216852634E-04
(PID.TID 0000.0001) %MON surfExpan_theta_mean         =   7.3534600749153E-06
(PID.TID 0000.0001) %MON surfExpan_salt_mean          =  -7.2250772979019E-08
(PID.TID 0000.0001) // =======================================================
(PID.TID 0000.0001) // End MONITOR dynamic field statistics
(PID.TID 0000.0001) // =======================================================
time,SST,SSS,fu,fv,Q,E-P,i0,i1,a,b =   4.2336E+06 -4.8546E-01  3.4442E+01 -1.6137E-02 -1.5361E-02  2.3714E+02  0.0000E+00     2     3  1.3333E-01  8.6667E-01
time,fu0,fu1,fu =   4.2336E+06 -1.4435E-02 -2.7199E-02 -1.6137E-02  1.3333E-01  8.6667E-01
 cg2d: Sum(rhs),rhsMax =   2.01019756396192E-13  6.75051834907823E+00
(PID.TID 0000.0001)                    cg2d_init_res =    3.72014774974560E-01
(PID.TID 0000.0001)                       cg2d_iters =    24
(PID.TID 0000.0001)                         cg2d_res =    6.81350869260915E-14
(PID.TID 0000.0001) // =======================================================
(PID.TID 0000.0001) // Begin MONITOR dynamic field statistics
(PID.TID 0000.0001) // =======================================================
(PID.TID 0000.0001) %MON time_tsnumber                =                    99
(PID.TID 0000.0001) %MON time_secondsf                =   4.2768000000000E+06
(PID.TID 0000.0001) %MON dynstat_eta_max              =   8.0296703506247E-01
(PID.TID 0000.0001) %MON dynstat_eta_min              =  -1.3873408861454E+00
(PID.TID 0000.0001) %MON dynstat_eta_mean             =  -7.9155179228911E-17
(PID.TID 0000.0001) %MON dynstat_eta_sd               =   4.6693904613923E-01
(PID.TID 0000.0001) %MON dynstat_eta_del2             =   1.8828488732403E-02
(PID.TID 0000.0001) %MON dynstat_uvel_max             =   1.5428999568511E-01
(PID.TID 0000.0001) %MON dynstat_uvel_min             =  -1.5489539844562E-01
(PID.TID 0000.0001) %MON dynstat_uvel_mean            =   9.3585507828454E-04
(PID.TID 0000.0001) %MON dynstat_uvel_sd              =   1.5282014688025E-02
(PID.TID 0000.0001) %MON dynstat_uvel_del2            =   4.7989066849590E-03
(PID.TID 0000.0001) %MON dynstat_vvel_max             =   1.6707365729159E-01
(PID.TID 0000.0001) %MON dynstat_vvel_min             =  -1.4870779744648E-01
(PID.TID 0000.0001) %MON dynstat_vvel_mean            =   5.6814097885946E-04
(PID.TID 0000.0001) %MON dynstat_vvel_sd              =   1.4705298238219E-02
(PID.TID 0000.0001) %MON dynstat_vvel_del2            =   4.2776186549636E-03
(PID.TID 0000.0001) %MON dynstat_wvel_max             =   3.7934339970114E-04
(PID.TID 0000.0001) %MON dynstat_wvel_min             =  -1.9636187953411E-04
(PID.TID 0000.0001) %MON dynstat_wvel_mean            =  -4.4047414884282E-22
(PID.TID 0000.0001) %MON dynstat_wvel_sd              =   2.0938110575029E-05
(PID.TID 0000.0001) %MON dynstat_wvel_del2            =   8.1189640562592E-06
(PID.TID 0000.0001) %MON dynstat_theta_max            =   2.9822800822294E+01
(PID.TID 0000.0001) %MON dynstat_theta_min            =  -1.9303399568072E+00
(PID.TID 0000.0001) %MON dynstat_theta_mean           =   3.5887050193325E+00
(PID.TID 0000.0001) %MON dynstat_theta_sd             =   4.3335070314956E+00
(PID.TID 0000.0001) %MON dynstat_theta_del2           =   1.2883191872599E-01
(PID.TID 0000.0001) %MON dynstat_salt_max             =   3.7389164839194E+01
(PID.TID 0000.0001) %MON dynstat_salt_min             =   2.9724641874443E+01
(PID.TID 0000.0001) %MON dynstat_salt_mean            =   3.4716006865890E+01
(PID.TID 0000.0001) %MON dynstat_salt_sd              =   2.9346445216228E-01
(PID.TID 0000.0001) %MON dynstat_salt_del2            =   2.2947860068050E-02
(PID.TID 0000.0001) %MON advcfl_uvel_max              =   2.9367040628613E-02
(PID.TID 0000.0001) %MON advcfl_vvel_max              =   1.6229866036222E-02
(PID.TID 0000.0001) %MON advcfl_wvel_max              =   8.1616081552717E-02
(PID.TID 0000.0001) %MON advcfl_W_hf_max              =   7.4386831130977E-02
(PID.TID 0000.0001) %MON pe_b_mean                    =   2.7899831718258E-04
(PID.TID 0000.0001) %MON ke_max                       =   1.5581506347741E-02
(PID.TID 0000.0001) %MON ke_mean                      =   2.0372577444948E-04
(PID.TID 0000.0001) %MON ke_vol                       =   1.3226782436723E+18
(PID.TID 0000.0001) %MON vort_r_min                   =  -7.2051851741342E-07
(PID.TID 0000.0001) %MON vort_r_max                   =   6.6749429966304E-07
(PID.TID 0000.0001) %MON vort_a_mean                  =  -2.5205768384827E-05
(PID.TID 0000.0001) %MON vort_a_sd                    =   7.3403451907449E-05
(PID.TID 0000.0001) %MON vort_p_mean                  =  -3.1758668286642E-05
(PID.TID 0000.0001) %MON vort_p_sd                    =   1.3126209659798E-04
(PID.TID 0000.0001) %MON surfExpan_theta_mean         =   6.9739148309443E-06
(PID.TID 0000.0001) %MON surfExpan_salt_mean          =  -5.2263579830845E-08
(PID.TID 0000.0001) // =======================================================
(PID.TID 0000.0001) // End MONITOR dynamic field statistics
(PID.TID 0000.0001) // =======================================================
time,SST,SSS,fu,fv,Q,E-P,i0,i1,a,b =   4.2768E+06 -4.7966E-01  3.4445E+01 -1.6349E-02 -1.5077E-02  2.3672E+02  0.0000E+00     2     3  1.5000E-01  8.5000E-01
time,fu0,fu1,fu =   4.2768E+06 -1.4435E-02 -2.7199E-02 -1.6349E-02  1.5000E-01  8.5000E-01
 cg2d: Sum(rhs),rhsMax =  -4.76979566954583E-14  6.91710521682246E+00
(PID.TID 0000.0001)                    cg2d_init_res =    3.50442391215793E-01
(PID.TID 0000.0001)                       cg2d_iters =    24
(PID.TID 0000.0001)                         cg2d_res =    6.56674149971769E-14
(PID.TID 0000.0001) // =======================================================
(PID.TID 0000.0001) // Begin MONITOR dynamic field statistics
(PID.TID 0000.0001) // =======================================================
(PID.TID 0000.0001) %MON time_tsnumber                =                   100
(PID.TID 0000.0001) %MON time_secondsf                =   4.3200000000000E+06
(PID.TID 0000.0001) %MON dynstat_eta_max              =   8.2237369561094E-01
(PID.TID 0000.0001) %MON dynstat_eta_min              =  -1.3835646117024E+00
(PID.TID 0000.0001) %MON dynstat_eta_mean             =  -2.0600735913063E-17
(PID.TID 0000.0001) %MON dynstat_eta_sd               =   4.6800754347422E-01
(PID.TID 0000.0001) %MON dynstat_eta_del2             =   1.8914424316042E-02
(PID.TID 0000.0001) %MON dynstat_uvel_max             =   1.5040824179890E-01
(PID.TID 0000.0001) %MON dynstat_uvel_min             =  -1.5414371670815E-01
(PID.TID 0000.0001) %MON dynstat_uvel_mean            =   9.2590357948769E-04
(PID.TID 0000.0001) %MON dynstat_uvel_sd              =   1.5311066736050E-02
(PID.TID 0000.0001) %MON dynstat_uvel_del2            =   4.7819409531867E-03
(PID.TID 0000.0001) %MON dynstat_vvel_max             =   1.6669696662582E-01
(PID.TID 0000.0001) %MON dynstat_vvel_min             =  -1.4791579527247E-01
(PID.TID 0000.0001) %MON dynstat_vvel_mean            =   6.7316983938237E-04
(PID.TID 0000.0001) %MON dynstat_vvel_sd              =   1.4649474636707E-02
(PID.TID 0000.0001) %MON dynstat_vvel_del2            =   4.2580565810660E-03
(PID.TID 0000.0001) %MON dynstat_wvel_max             =   3.7677459165004E-04
(PID.TID 0000.0001) %MON dynstat_wvel_min             =  -1.9567832432499E-04
(PID.TID 0000.0001) %MON dynstat_wvel_mean            =  -2.6798669681350E-22
(PID.TID 0000.0001) %MON dynstat_wvel_sd              =   2.0809079594071E-05
(PID.TID 0000.0001) %MON dynstat_wvel_del2            =   8.0431042381688E-06
(PID.TID 0000.0001) %MON dynstat_theta_max            =   2.9825894020797E+01
(PID.TID 0000.0001) %MON dynstat_theta_min            =  -1.9298641012026E+00
(PID.TID 0000.0001) %MON dynstat_theta_mean           =   3.5886781730279E+00
(PID.TID 0000.0001) %MON dynstat_theta_sd             =   4.3335019851718E+00
(PID.TID 0000.0001) %MON dynstat_theta_del2           =   1.2880587474002E-01
(PID.TID 0000.0001) %MON dynstat_salt_max             =   3.7388745171164E+01
(PID.TID 0000.0001) %MON dynstat_salt_min             =   2.9722886340485E+01
(PID.TID 0000.0001) %MON dynstat_salt_mean            =   3.4716007026751E+01
(PID.TID 0000.0001) %MON dynstat_salt_sd              =   2.9343801151114E-01
(PID.TID 0000.0001) %MON dynstat_salt_del2            =   2.2919367005805E-02
(PID.TID 0000.0001) %MON advcfl_uvel_max              =   2.9253336865765E-02
(PID.TID 0000.0001) %MON advcfl_vvel_max              =   1.6193273558738E-02
(PID.TID 0000.0001) %MON advcfl_wvel_max              =   7.3317944700479E-02
(PID.TID 0000.0001) %MON advcfl_W_hf_max              =   6.5792498227280E-02
(PID.TID 0000.0001) %MON pe_b_mean                    =   2.8027664266184E-04
(PID.TID 0000.0001) %MON ke_max                       =   1.5468495218139E-02
(PID.TID 0000.0001) %MON ke_mean                      =   2.0344399968861E-04
(PID.TID 0000.0001) %MON ke_vol                       =   1.3226782436723E+18
(PID.TID 0000.0001) %MON vort_r_min                   =  -7.3531717165828E-07
(PID.TID 0000.0001) %MON vort_r_max                   =   6.6054553779452E-07
(PID.TID 0000.0001) %MON vort_a_mean                  =  -2.5205768421058E-05
(PID.TID 0000.0001) %MON vort_a_sd                    =   7.3403446074065E-05
(PID.TID 0000.0001) %MON vort_p_mean                  =  -3.1758668332292E-05
(PID.TID 0000.0001) %MON vort_p_sd                    =   1.3126202297272E-04
(PID.TID 0000.0001) %MON surfExpan_theta_mean         =   6.6066825245741E-06
(PID.TID 0000.0001) %MON surfExpan_salt_mean          =  -3.6092239521956E-08
(PID.TID 0000.0001) // =======================================================
(PID.TID 0000.0001) // End MONITOR dynamic field statistics
(PID.TID 0000.0001) // =======================================================
time,SST,SSS,fu,fv,Q,E-P,i0,i1,a,b =   4.3200E+06 -4.7386E-01  3.4447E+01 -1.6562E-02 -1.4793E-02  2.3630E+02  0.0000E+00     2     3  1.6667E-01  8.3333E-01
time,fu0,fu1,fu =   4.3200E+06 -1.4435E-02 -2.7199E-02 -1.6562E-02  1.6667E-01  8.3333E-01
 cg2d: Sum(rhs),rhsMax =   7.19285742079023E-14  7.04306638792387E+00
(PID.TID 0000.0001)                    cg2d_init_res =    3.32878860148651E-01
(PID.TID 0000.0001)                       cg2d_iters =    24
(PID.TID 0000.0001)                         cg2d_res =    6.40804418424676E-14
(PID.TID 0000.0001) // =======================================================
(PID.TID 0000.0001) // Begin MONITOR dynamic field statistics
(PID.TID 0000.0001) // =======================================================
(PID.TID 0000.0001) %MON time_tsnumber                =                   101
(PID.TID 0000.0001) %MON time_secondsf                =   4.3632000000000E+06
(PID.TID 0000.0001) %MON dynstat_eta_max              =   8.3706712441280E-01
(PID.TID 0000.0001) %MON dynstat_eta_min              =  -1.3784673031946E+00
(PID.TID 0000.0001) %MON dynstat_eta_mean             =   2.1734528862312E-17
(PID.TID 0000.0001) %MON dynstat_eta_sd               =   4.6910690104612E-01
(PID.TID 0000.0001) %MON dynstat_eta_del2             =   1.8980265285414E-02
(PID.TID 0000.0001) %MON dynstat_uvel_max             =   1.4848386168695E-01
(PID.TID 0000.0001) %MON dynstat_uvel_min             =  -1.5334525206908E-01
(PID.TID 0000.0001) %MON dynstat_uvel_mean            =   9.1677410299940E-04
(PID.TID 0000.0001) %MON dynstat_uvel_sd              =   1.5361038738015E-02
(PID.TID 0000.0001) %MON dynstat_uvel_del2            =   4.7645191990708E-03
(PID.TID 0000.0001) %MON dynstat_vvel_max             =   1.6614203021857E-01
(PID.TID 0000.0001) %MON dynstat_vvel_min             =  -1.4701841722738E-01
(PID.TID 0000.0001) %MON dynstat_vvel_mean            =   7.7713347410018E-04
(PID.TID 0000.0001) %MON dynstat_vvel_sd              =   1.4594139125617E-02
(PID.TID 0000.0001) %MON dynstat_vvel_del2            =   4.2409196204392E-03
(PID.TID 0000.0001) %MON dynstat_wvel_max             =   3.7387142329033E-04
(PID.TID 0000.0001) %MON dynstat_wvel_min             =  -1.9485786013830E-04
(PID.TID 0000.0001) %MON dynstat_wvel_mean            =  -1.9904849272567E-22
(PID.TID 0000.0001) %MON dynstat_wvel_sd              =   2.0683496092024E-05
(PID.TID 0000.0001) %MON dynstat_wvel_del2            =   7.9674717150890E-06
(PID.TID 0000.0001) %MON dynstat_theta_max            =   2.9829260964452E+01
(PID.TID 0000.0001) %MON dynstat_theta_min            =  -1.9293508720353E+00
(PID.TID 0000.0001) %MON dynstat_theta_mean           =   3.5886548462458E+00
(PID.TID 0000.0001) %MON dynstat_theta_sd             =   4.3335098725735E+00
(PID.TID 0000.0001) %MON dynstat_theta_del2           =   1.2877161257207E-01
(PID.TID 0000.0001) %MON dynstat_salt_max             =   3.7388324520471E+01
(PID.TID 0000.0001) %MON dynstat_salt_min             =   2.9721156175385E+01
(PID.TID 0000.0001) %MON dynstat_salt_mean            =   3.4716007097739E+01
(PID.TID 0000.0001) %MON dynstat_salt_sd              =   2.9341080218493E-01
(PID.TID 0000.0001) %MON dynstat_salt_del2            =   2.2891625530632E-02
(PID.TID 0000.0001) %MON advcfl_uvel_max              =   2.9131501807580E-02
(PID.TID 0000.0001) %MON advcfl_vvel_max              =   1.6139365936829E-02
(PID.TID 0000.0001) %MON advcfl_wvel_max              =   6.8343291299249E-02
(PID.TID 0000.0001) %MON advcfl_W_hf_max              =   6.3420070738176E-02
(PID.TID 0000.0001) %MON pe_b_mean                    =   2.8159493826692E-04
(PID.TID 0000.0001) %MON ke_max                       =   1.5407198826119E-02
(PID.TID 0000.0001) %MON ke_mean                      =   2.0347391248346E-04
(PID.TID 0000.0001) %MON ke_vol                       =   1.3226782436723E+18
(PID.TID 0000.0001) %MON vort_r_min                   =  -7.4937161649911E-07
(PID.TID 0000.0001) %MON vort_r_max                   =   6.5360144366689E-07
(PID.TID 0000.0001) %MON vort_a_mean                  =  -2.5205768457152E-05
(PID.TID 0000.0001) %MON vort_a_sd                    =   7.3403440626702E-05
(PID.TID 0000.0001) %MON vort_p_mean                  =  -3.1758668377770E-05
(PID.TID 0000.0001) %MON vort_p_sd                    =   1.3126194824913E-04
(PID.TID 0000.0001) %MON surfExpan_theta_mean         =   6.2493553886878E-06
(PID.TID 0000.0001) %MON surfExpan_salt_mean          =  -2.4928990708439E-08
(PID.TID 0000.0001) // =======================================================
(PID.TID 0000.0001) // End MONITOR dynamic field statistics
(PID.TID 0000.0001) // =======================================================
time,SST,SSS,fu,fv,Q,E-P,i0,i1,a,b =   4.3632E+06 -4.6807E-01  3.4450E+01 -1.6775E-02 -1.4508E-02  2.3588E+02  0.0000E+00     2     3  1.8333E-01  8.1667E-01
time,fu0,fu1,fu =   4.3632E+06 -1.4435E-02 -2.7199E-02 -1.6775E-02  1.8333E-01  8.1667E-01
 cg2d: Sum(rhs),rhsMax =   4.18651224798339E-13  7.12733481578319E+00
(PID.TID 0000.0001)                    cg2d_init_res =    3.19783144794701E-01
(PID.TID 0000.0001)                       cg2d_iters =    24
(PID.TID 0000.0001)                         cg2d_res =    6.30925773749658E-14
(PID.TID 0000.0001) // =======================================================
(PID.TID 0000.0001) // Begin MONITOR dynamic field statistics
(PID.TID 0000.0001) // =======================================================
(PID.TID 0000.0001) %MON time_tsnumber                =                   102
(PID.TID 0000.0001) %MON time_secondsf                =   4.4064000000000E+06
(PID.TID 0000.0001) %MON dynstat_eta_max              =   8.4692456467428E-01
(PID.TID 0000.0001) %MON dynstat_eta_min              =  -1.3723453339099E+00
(PID.TID 0000.0001) %MON dynstat_eta_mean             =  -1.5495515203293E-16
(PID.TID 0000.0001) %MON dynstat_eta_sd               =   4.7023057033823E-01
(PID.TID 0000.0001) %MON dynstat_eta_del2             =   1.9038233529778E-02
(PID.TID 0000.0001) %MON dynstat_uvel_max             =   1.5522111405726E-01
(PID.TID 0000.0001) %MON dynstat_uvel_min             =  -1.5250194619673E-01
(PID.TID 0000.0001) %MON dynstat_uvel_mean            =   9.0872525527564E-04
(PID.TID 0000.0001) %MON dynstat_uvel_sd              =   1.5429281343202E-02
(PID.TID 0000.0001) %MON dynstat_uvel_del2            =   4.7467857445114E-03
(PID.TID 0000.0001) %MON dynstat_vvel_max             =   1.6540636299046E-01
(PID.TID 0000.0001) %MON dynstat_vvel_min             =  -1.4602399611021E-01
(PID.TID 0000.0001) %MON dynstat_vvel_mean            =   8.7909921243948E-04
(PID.TID 0000.0001) %MON dynstat_vvel_sd              =   1.4540645027343E-02
(PID.TID 0000.0001) %MON dynstat_vvel_del2            =   4.2262943112308E-03
(PID.TID 0000.0001) %MON dynstat_wvel_max             =   3.7064094677817E-04
(PID.TID 0000.0001) %MON dynstat_wvel_min             =  -1.9390283734615E-04
(PID.TID 0000.0001) %MON dynstat_wvel_mean            =   3.8618487710653E-22
(PID.TID 0000.0001) %MON dynstat_wvel_sd              =   2.0563291349958E-05
(PID.TID 0000.0001) %MON dynstat_wvel_del2            =   7.8985494037431E-06
(PID.TID 0000.0001) %MON dynstat_theta_max            =   2.9832902998572E+01
(PID.TID 0000.0001) %MON dynstat_theta_min            =  -1.9288069003353E+00
(PID.TID 0000.0001) %MON dynstat_theta_mean           =   3.5886349150788E+00
(PID.TID 0000.0001) %MON dynstat_theta_sd             =   4.3335304981280E+00
(PID.TID 0000.0001) %MON dynstat_theta_del2           =   1.2873194330461E-01
(PID.TID 0000.0001) %MON dynstat_salt_max             =   3.7387902755726E+01
(PID.TID 0000.0001) %MON dynstat_salt_min             =   2.9719453292934E+01
(PID.TID 0000.0001) %MON dynstat_salt_mean            =   3.4716007151623E+01
(PID.TID 0000.0001) %MON dynstat_salt_sd              =   2.9338279014678E-01
(PID.TID 0000.0001) %MON dynstat_salt_del2            =   2.2862796398534E-02
(PID.TID 0000.0001) %MON advcfl_uvel_max              =   2.9000679719495E-02
(PID.TID 0000.0001) %MON advcfl_vvel_max              =   1.6067901764960E-02
(PID.TID 0000.0001) %MON advcfl_wvel_max              =   6.8907848183583E-02
(PID.TID 0000.0001) %MON advcfl_W_hf_max              =   6.5483303534141E-02
(PID.TID 0000.0001) %MON pe_b_mean                    =   2.8294558371709E-04
(PID.TID 0000.0001) %MON ke_max                       =   1.5334532210924E-02
(PID.TID 0000.0001) %MON ke_mean                      =   2.0379797009765E-04
(PID.TID 0000.0001) %MON ke_vol                       =   1.3226782436723E+18
(PID.TID 0000.0001) %MON vort_r_min                   =  -7.6256815059828E-07
(PID.TID 0000.0001) %MON vort_r_max                   =   6.4669321251214E-07
(PID.TID 0000.0001) %MON vort_a_mean                  =  -2.5205768493097E-05
(PID.TID 0000.0001) %MON vort_a_sd                    =   7.3403435636167E-05
(PID.TID 0000.0001) %MON vort_p_mean                  =  -3.1758668423060E-05
(PID.TID 0000.0001) %MON vort_p_sd                    =   1.3126187301488E-04
(PID.TID 0000.0001) %MON surfExpan_theta_mean         =   5.8992470645590E-06
(PID.TID 0000.0001) %MON surfExpan_salt_mean          =  -1.9743589902598E-08
(PID.TID 0000.0001) // =======================================================
(PID.TID 0000.0001) // End MONITOR dynamic field statistics
(PID.TID 0000.0001) // =======================================================
time,SST,SSS,fu,fv,Q,E-P,i0,i1,a,b =   4.4064E+06 -4.6227E-01  3.4453E+01 -1.6988E-02 -1.4224E-02  2.3546E+02  0.0000E+00     2     3  2.0000E-01  8.0000E-01
time,fu0,fu1,fu =   4.4064E+06 -1.4435E-02 -2.7199E-02 -1.6988E-02  2.0000E-01  8.0000E-01
 cg2d: Sum(rhs),rhsMax =  -3.85844134420665E-13  7.17018468164906E+00
(PID.TID 0000.0001)                    cg2d_init_res =    3.11468171664631E-01
(PID.TID 0000.0001)                       cg2d_iters =    24
(PID.TID 0000.0001)                         cg2d_res =    6.21261895530982E-14
(PID.TID 0000.0001) // =======================================================
(PID.TID 0000.0001) // Begin MONITOR dynamic field statistics
(PID.TID 0000.0001) // =======================================================
(PID.TID 0000.0001) %MON time_tsnumber                =                   103
(PID.TID 0000.0001) %MON time_secondsf                =   4.4496000000000E+06
(PID.TID 0000.0001) %MON dynstat_eta_max              =   8.5197893933913E-01
(PID.TID 0000.0001) %MON dynstat_eta_min              =  -1.3655028621646E+00
(PID.TID 0000.0001) %MON dynstat_eta_mean             =   2.1072015915759E-17
(PID.TID 0000.0001) %MON dynstat_eta_sd               =   4.7137276801842E-01
(PID.TID 0000.0001) %MON dynstat_eta_del2             =   1.9091444104830E-02
(PID.TID 0000.0001) %MON dynstat_uvel_max             =   1.6188541108349E-01
(PID.TID 0000.0001) %MON dynstat_uvel_min             =  -1.5161375228335E-01
(PID.TID 0000.0001) %MON dynstat_uvel_mean            =   9.0197175418047E-04
(PID.TID 0000.0001) %MON dynstat_uvel_sd              =   1.5512639444528E-02
(PID.TID 0000.0001) %MON dynstat_uvel_del2            =   4.7306301737846E-03
(PID.TID 0000.0001) %MON dynstat_vvel_max             =   1.6448780192926E-01
(PID.TID 0000.0001) %MON dynstat_vvel_min             =  -1.4494274074258E-01
(PID.TID 0000.0001) %MON dynstat_vvel_mean            =   9.7810791395484E-04
(PID.TID 0000.0001) %MON dynstat_vvel_sd              =   1.4490367407047E-02
(PID.TID 0000.0001) %MON dynstat_vvel_del2            =   4.2142512360483E-03
(PID.TID 0000.0001) %MON dynstat_wvel_max             =   3.6709503038135E-04
(PID.TID 0000.0001) %MON dynstat_wvel_min             =  -1.9281723836178E-04
(PID.TID 0000.0001) %MON dynstat_wvel_mean            =  -7.9697928051971E-23
(PID.TID 0000.0001) %MON dynstat_wvel_sd              =   2.0449953977573E-05
(PID.TID 0000.0001) %MON dynstat_wvel_del2            =   7.8373833329534E-06
(PID.TID 0000.0001) %MON dynstat_theta_max            =   2.9836902321324E+01
(PID.TID 0000.0001) %MON dynstat_theta_min            =  -1.9282383830288E+00
(PID.TID 0000.0001) %MON dynstat_theta_mean           =   3.5886183281381E+00
(PID.TID 0000.0001) %MON dynstat_theta_sd             =   4.3335639578201E+00
(PID.TID 0000.0001) %MON dynstat_theta_del2           =   1.2867526830796E-01
(PID.TID 0000.0001) %MON dynstat_salt_max             =   3.7387479449702E+01
(PID.TID 0000.0001) %MON dynstat_salt_min             =   2.9717779464648E+01
(PID.TID 0000.0001) %MON dynstat_salt_mean            =   3.4716007267623E+01
(PID.TID 0000.0001) %MON dynstat_salt_sd              =   2.9335407440380E-01
(PID.TID 0000.0001) %MON dynstat_salt_del2            =   2.2832690012531E-02
(PID.TID 0000.0001) %MON advcfl_uvel_max              =   2.8860070540819E-02
(PID.TID 0000.0001) %MON advcfl_vvel_max              =   1.5978670923838E-02
(PID.TID 0000.0001) %MON advcfl_wvel_max              =   6.8820441248120E-02
(PID.TID 0000.0001) %MON advcfl_W_hf_max              =   6.7096137919840E-02
(PID.TID 0000.0001) %MON pe_b_mean                    =   2.8432181195161E-04
(PID.TID 0000.0001) %MON ke_max                       =   1.5249804751509E-02
(PID.TID 0000.0001) %MON ke_mean                      =   2.0439147984865E-04
(PID.TID 0000.0001) %MON ke_vol                       =   1.3226782436723E+18
(PID.TID 0000.0001) %MON vort_r_min                   =  -7.7481088953105E-07
(PID.TID 0000.0001) %MON vort_r_max                   =   6.3984205824584E-07
(PID.TID 0000.0001) %MON vort_a_mean                  =  -2.5205768528889E-05
(PID.TID 0000.0001) %MON vort_a_sd                    =   7.3403431157878E-05
(PID.TID 0000.0001) %MON vort_p_mean                  =  -3.1758668468157E-05
(PID.TID 0000.0001) %MON vort_p_sd                    =   1.3126179786707E-04
(PID.TID 0000.0001) %MON surfExpan_theta_mean         =   5.5552284105755E-06
(PID.TID 0000.0001) %MON surfExpan_salt_mean          =  -2.0839384301062E-08
(PID.TID 0000.0001) // =======================================================
(PID.TID 0000.0001) // End MONITOR dynamic field statistics
(PID.TID 0000.0001) // =======================================================
time,SST,SSS,fu,fv,Q,E-P,i0,i1,a,b =   4.4496E+06 -4.5647E-01  3.4455E+01 -1.7200E-02 -1.3940E-02  2.3505E+02  0.0000E+00     2     3  2.1667E-01  7.8333E-01
time,fu0,fu1,fu =   4.4496E+06 -1.4435E-02 -2.7199E-02 -1.7200E-02  2.1667E-01  7.8333E-01
 cg2d: Sum(rhs),rhsMax =   2.47399323249908E-13  7.17315917612881E+00
(PID.TID 0000.0001)                    cg2d_init_res =    3.07999272617874E-01
(PID.TID 0000.0001)                       cg2d_iters =    24
(PID.TID 0000.0001)                         cg2d_res =    5.77459357273508E-14
(PID.TID 0000.0001) // =======================================================
(PID.TID 0000.0001) // Begin MONITOR dynamic field statistics
(PID.TID 0000.0001) // =======================================================
(PID.TID 0000.0001) %MON time_tsnumber                =                   104
(PID.TID 0000.0001) %MON time_secondsf                =   4.4928000000000E+06
(PID.TID 0000.0001) %MON dynstat_eta_max              =   8.5241027566068E-01
(PID.TID 0000.0001) %MON dynstat_eta_min              =  -1.3729011412183E+00
(PID.TID 0000.0001) %MON dynstat_eta_mean             =   2.5280221664615E-16
(PID.TID 0000.0001) %MON dynstat_eta_sd               =   4.7252901067511E-01
(PID.TID 0000.0001) %MON dynstat_eta_del2             =   1.9132593290467E-02
(PID.TID 0000.0001) %MON dynstat_uvel_max             =   1.6836053146832E-01
(PID.TID 0000.0001) %MON dynstat_uvel_min             =  -1.5067903469036E-01
(PID.TID 0000.0001) %MON dynstat_uvel_mean            =   8.9667866958407E-04
(PID.TID 0000.0001) %MON dynstat_uvel_sd              =   1.5607608357662E-02
(PID.TID 0000.0001) %MON dynstat_uvel_del2            =   4.7164663487299E-03
(PID.TID 0000.0001) %MON dynstat_vvel_max             =   1.6338465283029E-01
(PID.TID 0000.0001) %MON dynstat_vvel_min             =  -1.4378633471167E-01
(PID.TID 0000.0001) %MON dynstat_vvel_mean            =   1.0732039766941E-03
(PID.TID 0000.0001) %MON dynstat_vvel_sd              =   1.4444587526140E-02
(PID.TID 0000.0001) %MON dynstat_vvel_del2            =   4.2044585941863E-03
(PID.TID 0000.0001) %MON dynstat_wvel_max             =   3.6325013028927E-04
(PID.TID 0000.0001) %MON dynstat_wvel_min             =  -1.9160678953112E-04
(PID.TID 0000.0001) %MON dynstat_wvel_mean            =   4.7042191916014E-22
(PID.TID 0000.0001) %MON dynstat_wvel_sd              =   2.0344215868579E-05
(PID.TID 0000.0001) %MON dynstat_wvel_del2            =   7.7820026672400E-06
(PID.TID 0000.0001) %MON dynstat_theta_max            =   2.9841194095434E+01
(PID.TID 0000.0001) %MON dynstat_theta_min            =  -1.9276514966680E+00
(PID.TID 0000.0001) %MON dynstat_theta_mean           =   3.5886050705617E+00
(PID.TID 0000.0001) %MON dynstat_theta_sd             =   4.3336100897593E+00
(PID.TID 0000.0001) %MON dynstat_theta_del2           =   1.2861022314907E-01
(PID.TID 0000.0001) %MON dynstat_salt_max             =   3.7387053969194E+01
(PID.TID 0000.0001) %MON dynstat_salt_min             =   2.9716136313587E+01
(PID.TID 0000.0001) %MON dynstat_salt_mean            =   3.4716007520206E+01
(PID.TID 0000.0001) %MON dynstat_salt_sd              =   2.9332475706432E-01
(PID.TID 0000.0001) %MON dynstat_salt_del2            =   2.2802806977294E-02
(PID.TID 0000.0001) %MON advcfl_uvel_max              =   2.8708964063083E-02
(PID.TID 0000.0001) %MON advcfl_vvel_max              =   1.5871508835065E-02
(PID.TID 0000.0001) %MON advcfl_wvel_max              =   6.8123349020393E-02
(PID.TID 0000.0001) %MON advcfl_W_hf_max              =   6.8232884551924E-02
(PID.TID 0000.0001) %MON pe_b_mean                    =   2.8571836356924E-04
(PID.TID 0000.0001) %MON ke_max                       =   1.5152392553030E-02
(PID.TID 0000.0001) %MON ke_mean                      =   2.0522275081663E-04
(PID.TID 0000.0001) %MON ke_vol                       =   1.3226782436723E+18
(PID.TID 0000.0001) %MON vort_r_min                   =  -7.8602224007128E-07
(PID.TID 0000.0001) %MON vort_r_max                   =   6.3306044630867E-07
(PID.TID 0000.0001) %MON vort_a_mean                  =  -2.5205768564534E-05
(PID.TID 0000.0001) %MON vort_a_sd                    =   7.3403427230428E-05
(PID.TID 0000.0001) %MON vort_p_mean                  =  -3.1758668513069E-05
(PID.TID 0000.0001) %MON vort_p_sd                    =   1.3126172336381E-04
(PID.TID 0000.0001) %MON surfExpan_theta_mean         =   5.2146771996245E-06
(PID.TID 0000.0001) %MON surfExpan_salt_mean          =  -2.8644201169165E-08
(PID.TID 0000.0001) // =======================================================
(PID.TID 0000.0001) // End MONITOR dynamic field statistics
(PID.TID 0000.0001) // =======================================================
time,SST,SSS,fu,fv,Q,E-P,i0,i1,a,b =   4.4928E+06 -4.5067E-01  3.4458E+01 -1.7413E-02 -1.3655E-02  2.3463E+02  0.0000E+00     2     3  2.3333E-01  7.6667E-01
time,fu0,fu1,fu =   4.4928E+06 -1.4435E-02 -2.7199E-02 -1.7413E-02  2.3333E-01  7.6667E-01
 cg2d: Sum(rhs),rhsMax =  -3.83845732976340E-13  7.13896066937856E+00
(PID.TID 0000.0001)                    cg2d_init_res =    3.09116108513347E-01
(PID.TID 0000.0001)                       cg2d_iters =    24
(PID.TID 0000.0001)                         cg2d_res =    5.33335938682225E-14
(PID.TID 0000.0001) // =======================================================
(PID.TID 0000.0001) // Begin MONITOR dynamic field statistics
(PID.TID 0000.0001) // =======================================================
(PID.TID 0000.0001) %MON time_tsnumber                =                   105
(PID.TID 0000.0001) %MON time_secondsf                =   4.5360000000000E+06
(PID.TID 0000.0001) %MON dynstat_eta_max              =   8.4853278417205E-01
(PID.TID 0000.0001) %MON dynstat_eta_min              =  -1.3876067313274E+00
(PID.TID 0000.0001) %MON dynstat_eta_mean             =  -8.8427047397715E-18
(PID.TID 0000.0001) %MON dynstat_eta_sd               =   4.7369632598463E-01
(PID.TID 0000.0001) %MON dynstat_eta_del2             =   1.9132218224101E-02
(PID.TID 0000.0001) %MON dynstat_uvel_max             =   1.7453506281383E-01
(PID.TID 0000.0001) %MON dynstat_uvel_min             =  -1.4969497617101E-01
(PID.TID 0000.0001) %MON dynstat_uvel_mean            =   8.9296040936513E-04
(PID.TID 0000.0001) %MON dynstat_uvel_sd              =   1.5710509887068E-02
(PID.TID 0000.0001) %MON dynstat_uvel_del2            =   4.7030443493113E-03
(PID.TID 0000.0001) %MON dynstat_vvel_max             =   1.6209584314194E-01
(PID.TID 0000.0001) %MON dynstat_vvel_min             =  -1.4256750053504E-01
(PID.TID 0000.0001) %MON dynstat_vvel_mean            =   1.1634686082778E-03
(PID.TID 0000.0001) %MON dynstat_vvel_sd              =   1.4404385788013E-02
(PID.TID 0000.0001) %MON dynstat_vvel_del2            =   4.1968178593321E-03
(PID.TID 0000.0001) %MON dynstat_wvel_max             =   3.5912686299422E-04
(PID.TID 0000.0001) %MON dynstat_wvel_min             =  -1.9027851768445E-04
(PID.TID 0000.0001) %MON dynstat_wvel_mean            =  -2.9435067372733E-22
(PID.TID 0000.0001) %MON dynstat_wvel_sd              =   2.0246079385460E-05
(PID.TID 0000.0001) %MON dynstat_wvel_del2            =   7.7292734788347E-06
(PID.TID 0000.0001) %MON dynstat_theta_max            =   2.9845722874373E+01
(PID.TID 0000.0001) %MON dynstat_theta_min            =  -1.9270545401183E+00
(PID.TID 0000.0001) %MON dynstat_theta_mean           =   3.5885950931898E+00
(PID.TID 0000.0001) %MON dynstat_theta_sd             =   4.3336688213648E+00
(PID.TID 0000.0001) %MON dynstat_theta_del2           =   1.2853761640273E-01
(PID.TID 0000.0001) %MON dynstat_salt_max             =   3.7386625573851E+01
(PID.TID 0000.0001) %MON dynstat_salt_min             =   2.9714525300186E+01
(PID.TID 0000.0001) %MON dynstat_salt_mean            =   3.4716007986652E+01
(PID.TID 0000.0001) %MON dynstat_salt_sd              =   2.9329485649042E-01
(PID.TID 0000.0001) %MON dynstat_salt_del2            =   2.2771991990274E-02
(PID.TID 0000.0001) %MON advcfl_uvel_max              =   2.8845027471006E-02
(PID.TID 0000.0001) %MON advcfl_vvel_max              =   1.5746311308853E-02
(PID.TID 0000.0001) %MON advcfl_wvel_max              =   6.6865259014346E-02
(PID.TID 0000.0001) %MON advcfl_W_hf_max              =   6.8865994153020E-02
(PID.TID 0000.0001) %MON pe_b_mean                    =   2.8713175988314E-04
(PID.TID 0000.0001) %MON ke_max                       =   1.5041760887647E-02
(PID.TID 0000.0001) %MON ke_mean                      =   2.0625380374361E-04
(PID.TID 0000.0001) %MON ke_vol                       =   1.3226782436723E+18
(PID.TID 0000.0001) %MON vort_r_min                   =  -7.9614295997122E-07
(PID.TID 0000.0001) %MON vort_r_max                   =   6.2635352987814E-07
(PID.TID 0000.0001) %MON vort_a_mean                  =  -2.5205768600034E-05
(PID.TID 0000.0001) %MON vort_a_sd                    =   7.3403423875330E-05
(PID.TID 0000.0001) %MON vort_p_mean                  =  -3.1758668557798E-05
(PID.TID 0000.0001) %MON vort_p_sd                    =   1.3126165004197E-04
(PID.TID 0000.0001) %MON surfExpan_theta_mean         =   4.8759381735176E-06
(PID.TID 0000.0001) %MON surfExpan_salt_mean          =  -4.3228861018636E-08
(PID.TID 0000.0001) // =======================================================
(PID.TID 0000.0001) // End MONITOR dynamic field statistics
(PID.TID 0000.0001) // =======================================================
time,SST,SSS,fu,fv,Q,E-P,i0,i1,a,b =   4.5360E+06 -4.4487E-01  3.4461E+01 -1.7626E-02 -1.3371E-02  2.3421E+02  0.0000E+00     2     3  2.5000E-01  7.5000E-01
time,fu0,fu1,fu =   4.5360E+06 -1.4435E-02 -2.7199E-02 -1.7626E-02  2.5000E-01  7.5000E-01
 cg2d: Sum(rhs),rhsMax =   4.14376866153532E-13  7.07130426446202E+00
(PID.TID 0000.0001)                    cg2d_init_res =    3.14225889332562E-01
(PID.TID 0000.0001)                       cg2d_iters =    24
(PID.TID 0000.0001)                         cg2d_res =    6.29457089023108E-14
(PID.TID 0000.0001) // =======================================================
(PID.TID 0000.0001) // Begin MONITOR dynamic field statistics
(PID.TID 0000.0001) // =======================================================
(PID.TID 0000.0001) %MON time_tsnumber                =                   106
(PID.TID 0000.0001) %MON time_secondsf                =   4.5792000000000E+06
(PID.TID 0000.0001) %MON dynstat_eta_max              =   8.4077772385339E-01
(PID.TID 0000.0001) %MON dynstat_eta_min              =  -1.4012121455823E+00
(PID.TID 0000.0001) %MON dynstat_eta_mean             =  -3.2654958083240E-17
(PID.TID 0000.0001) %MON dynstat_eta_sd               =   4.7487315559085E-01
(PID.TID 0000.0001) %MON dynstat_eta_del2             =   1.9114300371137E-02
(PID.TID 0000.0001) %MON dynstat_uvel_max             =   1.8030450579442E-01
(PID.TID 0000.0001) %MON dynstat_uvel_min             =  -1.4865812138710E-01
(PID.TID 0000.0001) %MON dynstat_uvel_mean            =   8.9088002085719E-04
(PID.TID 0000.0001) %MON dynstat_uvel_sd              =   1.5817680905335E-02
(PID.TID 0000.0001) %MON dynstat_uvel_del2            =   4.6914390112418E-03
(PID.TID 0000.0001) %MON dynstat_vvel_max             =   1.6062100389841E-01
(PID.TID 0000.0001) %MON dynstat_vvel_min             =  -1.4129953472437E-01
(PID.TID 0000.0001) %MON dynstat_vvel_mean            =   1.2480505512458E-03
(PID.TID 0000.0001) %MON dynstat_vvel_sd              =   1.4370545871974E-02
(PID.TID 0000.0001) %MON dynstat_vvel_del2            =   4.1894279255321E-03
(PID.TID 0000.0001) %MON dynstat_wvel_max             =   3.5474955335874E-04
(PID.TID 0000.0001) %MON dynstat_wvel_min             =  -1.8884079391681E-04
(PID.TID 0000.0001) %MON dynstat_wvel_mean            =  -3.3746922723236E-22
(PID.TID 0000.0001) %MON dynstat_wvel_sd              =   2.0154842757452E-05
(PID.TID 0000.0001) %MON dynstat_wvel_del2            =   7.6816220961994E-06
(PID.TID 0000.0001) %MON dynstat_theta_max            =   2.9850424705100E+01
(PID.TID 0000.0001) %MON dynstat_theta_min            =  -1.9264550126359E+00
(PID.TID 0000.0001) %MON dynstat_theta_mean           =   3.5885883838106E+00
(PID.TID 0000.0001) %MON dynstat_theta_sd             =   4.3337399085173E+00
(PID.TID 0000.0001) %MON dynstat_theta_del2           =   1.2845438471623E-01
(PID.TID 0000.0001) %MON dynstat_salt_max             =   3.7386193537480E+01
(PID.TID 0000.0001) %MON dynstat_salt_min             =   2.9712947764899E+01
(PID.TID 0000.0001) %MON dynstat_salt_mean            =   3.4716008739982E+01
(PID.TID 0000.0001) %MON dynstat_salt_sd              =   2.9326432921340E-01
(PID.TID 0000.0001) %MON dynstat_salt_del2            =   2.2741766647409E-02
(PID.TID 0000.0001) %MON advcfl_uvel_max              =   2.9798530673082E-02
(PID.TID 0000.0001) %MON advcfl_vvel_max              =   1.5603042503133E-02
(PID.TID 0000.0001) %MON advcfl_wvel_max              =   6.5100455763147E-02
(PID.TID 0000.0001) %MON advcfl_W_hf_max              =   6.8975731826997E-02
(PID.TID 0000.0001) %MON pe_b_mean                    =   2.8856020623350E-04
(PID.TID 0000.0001) %MON ke_max                       =   1.5360201488068E-02
(PID.TID 0000.0001) %MON ke_mean                      =   2.0744162328220E-04
(PID.TID 0000.0001) %MON ke_vol                       =   1.3226782436723E+18
(PID.TID 0000.0001) %MON vort_r_min                   =  -8.0513186520277E-07
(PID.TID 0000.0001) %MON vort_r_max                   =   6.1972092091176E-07
(PID.TID 0000.0001) %MON vort_a_mean                  =  -2.5205768635391E-05
(PID.TID 0000.0001) %MON vort_a_sd                    =   7.3403421096969E-05
(PID.TID 0000.0001) %MON vort_p_mean                  =  -3.1758668602347E-05
(PID.TID 0000.0001) %MON vort_p_sd                    =   1.3126157839649E-04
(PID.TID 0000.0001) %MON surfExpan_theta_mean         =   4.5384432107192E-06
(PID.TID 0000.0001) %MON surfExpan_salt_mean          =  -6.4353562222272E-08
(PID.TID 0000.0001) // =======================================================
(PID.TID 0000.0001) // End MONITOR dynamic field statistics
(PID.TID 0000.0001) // =======================================================
time,SST,SSS,fu,fv,Q,E-P,i0,i1,a,b =   4.5792E+06 -4.3907E-01  3.4463E+01 -1.7838E-02 -1.3087E-02  2.3379E+02  0.0000E+00     2     3  2.6667E-01  7.3333E-01
time,fu0,fu1,fu =   4.5792E+06 -1.4435E-02 -2.7199E-02 -1.7838E-02  2.6667E-01  7.3333E-01
 cg2d: Sum(rhs),rhsMax =  -3.29930527342981E-13  6.97474687846023E+00
(PID.TID 0000.0001)                    cg2d_init_res =    3.22463593954910E-01
(PID.TID 0000.0001)                       cg2d_iters =    24
(PID.TID 0000.0001)                         cg2d_res =    6.48014200886634E-14
(PID.TID 0000.0001) // =======================================================
(PID.TID 0000.0001) // Begin MONITOR dynamic field statistics
(PID.TID 0000.0001) // =======================================================
(PID.TID 0000.0001) %MON time_tsnumber                =                   107
(PID.TID 0000.0001) %MON time_secondsf                =   4.6224000000000E+06
(PID.TID 0000.0001) %MON dynstat_eta_max              =   8.2967348997732E-01
(PID.TID 0000.0001) %MON dynstat_eta_min              =  -1.4133364099725E+00
(PID.TID 0000.0001) %MON dynstat_eta_mean             =   2.5862858219731E-17
(PID.TID 0000.0001) %MON dynstat_eta_sd               =   4.7605898842103E-01
(PID.TID 0000.0001) %MON dynstat_eta_del2             =   1.9084196577546E-02
(PID.TID 0000.0001) %MON dynstat_uvel_max             =   1.8557320328677E-01
(PID.TID 0000.0001) %MON dynstat_uvel_min             =  -1.4756498907602E-01
(PID.TID 0000.0001) %MON dynstat_uvel_mean            =   8.9044821510874E-04
(PID.TID 0000.0001) %MON dynstat_uvel_sd              =   1.5925654377013E-02
(PID.TID 0000.0001) %MON dynstat_uvel_del2            =   4.6814545000026E-03
(PID.TID 0000.0001) %MON dynstat_vvel_max             =   1.6070231189500E-01
(PID.TID 0000.0001) %MON dynstat_vvel_min             =  -1.3999585188187E-01
(PID.TID 0000.0001) %MON dynstat_vvel_mean            =   1.3261928199069E-03
(PID.TID 0000.0001) %MON dynstat_vvel_sd              =   1.4343480506947E-02
(PID.TID 0000.0001) %MON dynstat_vvel_del2            =   4.1818921959431E-03
(PID.TID 0000.0001) %MON dynstat_wvel_max             =   3.5014562747550E-04
(PID.TID 0000.0001) %MON dynstat_wvel_min             =  -1.8730269142806E-04
(PID.TID 0000.0001) %MON dynstat_wvel_mean            =   1.0658165362240E-25
(PID.TID 0000.0001) %MON dynstat_wvel_sd              =   2.0069207671762E-05
(PID.TID 0000.0001) %MON dynstat_wvel_del2            =   7.6420313644387E-06
(PID.TID 0000.0001) %MON dynstat_theta_max            =   2.9855224620377E+01
(PID.TID 0000.0001) %MON dynstat_theta_min            =  -1.9260216268643E+00
(PID.TID 0000.0001) %MON dynstat_theta_mean           =   3.5885849250319E+00
(PID.TID 0000.0001) %MON dynstat_theta_sd             =   4.3338228254101E+00
(PID.TID 0000.0001) %MON dynstat_theta_del2           =   1.2834983893624E-01
(PID.TID 0000.0001) %MON dynstat_salt_max             =   3.7385757247529E+01
(PID.TID 0000.0001) %MON dynstat_salt_min             =   2.9711404917093E+01
(PID.TID 0000.0001) %MON dynstat_salt_mean            =   3.4716009845982E+01
(PID.TID 0000.0001) %MON dynstat_salt_sd              =   2.9323324531942E-01
(PID.TID 0000.0001) %MON dynstat_salt_del2            =   2.2709530810337E-02
(PID.TID 0000.0001) %MON advcfl_uvel_max              =   3.0669276765317E-02
(PID.TID 0000.0001) %MON advcfl_vvel_max              =   1.5610940922990E-02
(PID.TID 0000.0001) %MON advcfl_wvel_max              =   6.2887169914846E-02
(PID.TID 0000.0001) %MON advcfl_W_hf_max              =   6.8551446281995E-02
(PID.TID 0000.0001) %MON pe_b_mean                    =   2.9000316591988E-04
(PID.TID 0000.0001) %MON ke_max                       =   1.6394425166543E-02
(PID.TID 0000.0001) %MON ke_mean                      =   2.0873981989518E-04
(PID.TID 0000.0001) %MON ke_vol                       =   1.3226782436723E+18
(PID.TID 0000.0001) %MON vort_r_min                   =  -8.1296522318978E-07
(PID.TID 0000.0001) %MON vort_r_max                   =   6.1315865718404E-07
(PID.TID 0000.0001) %MON vort_a_mean                  =  -2.5205768670597E-05
(PID.TID 0000.0001) %MON vort_a_sd                    =   7.3403418882919E-05
(PID.TID 0000.0001) %MON vort_p_mean                  =  -3.1758668646706E-05
(PID.TID 0000.0001) %MON vort_p_sd                    =   1.3126150888414E-04
(PID.TID 0000.0001) %MON surfExpan_theta_mean         =   4.2024538868483E-06
(PID.TID 0000.0001) %MON surfExpan_salt_mean          =  -9.1614282085990E-08
(PID.TID 0000.0001) // =======================================================
(PID.TID 0000.0001) // End MONITOR dynamic field statistics
(PID.TID 0000.0001) // =======================================================
time,SST,SSS,fu,fv,Q,E-P,i0,i1,a,b =   4.6224E+06 -4.3327E-01  3.4466E+01 -1.8051E-02 -1.2803E-02  2.3337E+02  0.0000E+00     2     3  2.8333E-01  7.1667E-01
time,fu0,fu1,fu =   4.6224E+06 -1.4435E-02 -2.7199E-02 -1.8051E-02  2.8333E-01  7.1667E-01
 cg2d: Sum(rhs),rhsMax =  -2.21295204383409E-13  6.85449538867988E+00
(PID.TID 0000.0001)                    cg2d_init_res =    3.32796316597693E-01
(PID.TID 0000.0001)                       cg2d_iters =    24
(PID.TID 0000.0001)                         cg2d_res =    6.62202612476295E-14
(PID.TID 0000.0001) // =======================================================
(PID.TID 0000.0001) // Begin MONITOR dynamic field statistics
(PID.TID 0000.0001) // =======================================================
(PID.TID 0000.0001) %MON time_tsnumber                =                   108
(PID.TID 0000.0001) %MON time_secondsf                =   4.6656000000000E+06
(PID.TID 0000.0001) %MON dynstat_eta_max              =   8.1582327573695E-01
(PID.TID 0000.0001) %MON dynstat_eta_min              =  -1.4239999677410E+00
(PID.TID 0000.0001) %MON dynstat_eta_mean             =   1.0906404066789E-16
(PID.TID 0000.0001) %MON dynstat_eta_sd               =   4.7725381036217E-01
(PID.TID 0000.0001) %MON dynstat_eta_del2             =   1.9039871596614E-02
(PID.TID 0000.0001) %MON dynstat_uvel_max             =   1.9025604008729E-01
(PID.TID 0000.0001) %MON dynstat_uvel_min             =  -1.4641252169811E-01
(PID.TID 0000.0001) %MON dynstat_uvel_mean            =   8.9162405170085E-04
(PID.TID 0000.0001) %MON dynstat_uvel_sd              =   1.6031319676853E-02
(PID.TID 0000.0001) %MON dynstat_uvel_del2            =   4.6725544713653E-03
(PID.TID 0000.0001) %MON dynstat_vvel_max             =   1.6242039050300E-01
(PID.TID 0000.0001) %MON dynstat_vvel_min             =  -1.3866952447657E-01
(PID.TID 0000.0001) %MON dynstat_vvel_mean            =   1.3972571246283E-03
(PID.TID 0000.0001) %MON dynstat_vvel_sd              =   1.4323187218092E-02
(PID.TID 0000.0001) %MON dynstat_vvel_del2            =   4.1758394240173E-03
(PID.TID 0000.0001) %MON dynstat_wvel_max             =   3.4534487954693E-04
(PID.TID 0000.0001) %MON dynstat_wvel_min             =  -1.8567356084653E-04
(PID.TID 0000.0001) %MON dynstat_wvel_mean            =   2.7128005479088E-22
(PID.TID 0000.0001) %MON dynstat_wvel_sd              =   1.9987437802091E-05
(PID.TID 0000.0001) %MON dynstat_wvel_del2            =   7.6071653349503E-06
(PID.TID 0000.0001) %MON dynstat_theta_max            =   2.9860039238179E+01
(PID.TID 0000.0001) %MON dynstat_theta_min            =  -1.9265663529937E+00
(PID.TID 0000.0001) %MON dynstat_theta_mean           =   3.5885846756412E+00
(PID.TID 0000.0001) %MON dynstat_theta_sd             =   4.3339169718060E+00
(PID.TID 0000.0001) %MON dynstat_theta_del2           =   1.2822634825244E-01
(PID.TID 0000.0001) %MON dynstat_salt_max             =   3.7385316103517E+01
(PID.TID 0000.0001) %MON dynstat_salt_min             =   2.9709897843733E+01
(PID.TID 0000.0001) %MON dynstat_salt_mean            =   3.4716011361617E+01
(PID.TID 0000.0001) %MON dynstat_salt_sd              =   2.9320167362476E-01
(PID.TID 0000.0001) %MON dynstat_salt_del2            =   2.2680085151539E-02
(PID.TID 0000.0001) %MON advcfl_uvel_max              =   3.1443198944481E-02
(PID.TID 0000.0001) %MON advcfl_vvel_max              =   1.5777838482423E-02
(PID.TID 0000.0001) %MON advcfl_wvel_max              =   6.0285962312708E-02
(PID.TID 0000.0001) %MON advcfl_W_hf_max              =   6.8515952763091E-02
(PID.TID 0000.0001) %MON pe_b_mean                    =   2.9146070367436E-04
(PID.TID 0000.0001) %MON ke_max                       =   1.7368062291212E-02
(PID.TID 0000.0001) %MON ke_mean                      =   2.1010059702951E-04
(PID.TID 0000.0001) %MON ke_vol                       =   1.3226782436723E+18
(PID.TID 0000.0001) %MON vort_r_min                   =  -8.1963586282000E-07
(PID.TID 0000.0001) %MON vort_r_max                   =   6.1076343667324E-07
(PID.TID 0000.0001) %MON vort_a_mean                  =  -2.5205768705526E-05
(PID.TID 0000.0001) %MON vort_a_sd                    =   7.3403417205915E-05
(PID.TID 0000.0001) %MON vort_p_mean                  =  -3.1758668690716E-05
(PID.TID 0000.0001) %MON vort_p_sd                    =   1.3126144191550E-04
(PID.TID 0000.0001) %MON surfExpan_theta_mean         =   3.8689900614423E-06
(PID.TID 0000.0001) %MON surfExpan_salt_mean          =  -1.2439898589638E-07
(PID.TID 0000.0001) // =======================================================
(PID.TID 0000.0001) // End MONITOR dynamic field statistics
(PID.TID 0000.0001) // =======================================================
time,SST,SSS,fu,fv,Q,E-P,i0,i1,a,b =   4.6656E+06 -4.2747E-01  3.4469E+01 -1.8264E-02 -1.2518E-02  2.3296E+02  0.0000E+00     2     3  3.0000E-01  7.0000E-01
time,fu0,fu1,fu =   4.6656E+06 -1.4435E-02 -2.7199E-02 -1.8264E-02  3.0000E-01  7.0000E-01
 cg2d: Sum(rhs),rhsMax =  -1.00197627972420E-13  6.77682334681555E+00
(PID.TID 0000.0001)                    cg2d_init_res =    3.41050377367789E-01
(PID.TID 0000.0001)                       cg2d_iters =    24
(PID.TID 0000.0001)                         cg2d_res =    6.64894802011683E-14
(PID.TID 0000.0001) // =======================================================
(PID.TID 0000.0001) // Begin MONITOR dynamic field statistics
(PID.TID 0000.0001) // =======================================================
(PID.TID 0000.0001) %MON time_tsnumber                =                   109
(PID.TID 0000.0001) %MON time_secondsf                =   4.7088000000000E+06
(PID.TID 0000.0001) %MON dynstat_eta_max              =   7.9988094103736E-01
(PID.TID 0000.0001) %MON dynstat_eta_min              =  -1.4332706610550E+00
(PID.TID 0000.0001) %MON dynstat_eta_mean             =   1.8873054709185E-17
(PID.TID 0000.0001) %MON dynstat_eta_sd               =   4.7845749535863E-01
(PID.TID 0000.0001) %MON dynstat_eta_del2             =   1.8987204178574E-02
(PID.TID 0000.0001) %MON dynstat_uvel_max             =   1.9427993045978E-01
(PID.TID 0000.0001) %MON dynstat_uvel_min             =  -1.4519852904965E-01
(PID.TID 0000.0001) %MON dynstat_uvel_mean            =   8.9431641396946E-04
(PID.TID 0000.0001) %MON dynstat_uvel_sd              =   1.6132054109906E-02
(PID.TID 0000.0001) %MON dynstat_uvel_del2            =   4.6640656519125E-03
(PID.TID 0000.0001) %MON dynstat_vvel_max             =   1.6400259665077E-01
(PID.TID 0000.0001) %MON dynstat_vvel_min             =  -1.3733287475179E-01
(PID.TID 0000.0001) %MON dynstat_vvel_mean            =   1.4607413581473E-03
(PID.TID 0000.0001) %MON dynstat_vvel_sd              =   1.4309231869092E-02
(PID.TID 0000.0001) %MON dynstat_vvel_del2            =   4.1711658491902E-03
(PID.TID 0000.0001) %MON dynstat_wvel_max             =   3.4037878044633E-04
(PID.TID 0000.0001) %MON dynstat_wvel_min             =  -1.8396297315654E-04
(PID.TID 0000.0001) %MON dynstat_wvel_mean            =  -5.1672675620348E-22
(PID.TID 0000.0001) %MON dynstat_wvel_sd              =   1.9907558872532E-05
(PID.TID 0000.0001) %MON dynstat_wvel_del2            =   7.5712309124004E-06
(PID.TID 0000.0001) %MON dynstat_theta_max            =   2.9864780183647E+01
(PID.TID 0000.0001) %MON dynstat_theta_min            =  -1.9266570865134E+00
(PID.TID 0000.0001) %MON dynstat_theta_mean           =   3.5885875605523E+00
(PID.TID 0000.0001) %MON dynstat_theta_sd             =   4.3340219936585E+00
(PID.TID 0000.0001) %MON dynstat_theta_del2           =   1.2812238726567E-01
(PID.TID 0000.0001) %MON dynstat_salt_max             =   3.7384869688789E+01
(PID.TID 0000.0001) %MON dynstat_salt_min             =   2.9708427512992E+01
(PID.TID 0000.0001) %MON dynstat_salt_mean            =   3.4716013333552E+01
(PID.TID 0000.0001) %MON dynstat_salt_sd              =   2.9316971096421E-01
(PID.TID 0000.0001) %MON dynstat_salt_del2            =   2.2647455369619E-02
(PID.TID 0000.0001) %MON advcfl_uvel_max              =   3.2108218491060E-02
(PID.TID 0000.0001) %MON advcfl_vvel_max              =   1.5931537121911E-02
(PID.TID 0000.0001) %MON advcfl_wvel_max              =   5.7358128251918E-02
(PID.TID 0000.0001) %MON advcfl_W_hf_max              =   6.8899384095727E-02
(PID.TID 0000.0001) %MON pe_b_mean                    =   2.9293274760503E-04
(PID.TID 0000.0001) %MON ke_max                       =   1.8264078295645E-02
(PID.TID 0000.0001) %MON ke_mean                      =   2.1147681254416E-04
(PID.TID 0000.0001) %MON ke_vol                       =   1.3226782436723E+18
(PID.TID 0000.0001) %MON vort_r_min                   =  -8.2515203857464E-07
(PID.TID 0000.0001) %MON vort_r_max                   =   6.1861978702827E-07
(PID.TID 0000.0001) %MON vort_a_mean                  =  -2.5205768740321E-05
(PID.TID 0000.0001) %MON vort_a_sd                    =   7.3403416020954E-05
(PID.TID 0000.0001) %MON vort_p_mean                  =  -3.1758668734557E-05
(PID.TID 0000.0001) %MON vort_p_sd                    =   1.3126137783592E-04
(PID.TID 0000.0001) %MON surfExpan_theta_mean         =   3.5409008705936E-06
(PID.TID 0000.0001) %MON surfExpan_salt_mean          =  -1.6185679819636E-07
(PID.TID 0000.0001) // =======================================================
(PID.TID 0000.0001) // End MONITOR dynamic field statistics
(PID.TID 0000.0001) // =======================================================
time,SST,SSS,fu,fv,Q,E-P,i0,i1,a,b =   4.7088E+06 -4.2167E-01  3.4471E+01 -1.8477E-02 -1.2234E-02  2.3254E+02  0.0000E+00     2     3  3.1667E-01  6.8333E-01
time,fu0,fu1,fu =   4.7088E+06 -1.4435E-02 -2.7199E-02 -1.8477E-02  3.1667E-01  6.8333E-01
 cg2d: Sum(rhs),rhsMax =   5.83574855106406E-13  6.84684491762486E+00
(PID.TID 0000.0001)                    cg2d_init_res =    3.40802718277901E-01
(PID.TID 0000.0001)                       cg2d_iters =    24
(PID.TID 0000.0001)                         cg2d_res =    6.42779046289165E-14
(PID.TID 0000.0001) // =======================================================
(PID.TID 0000.0001) // Begin MONITOR dynamic field statistics
(PID.TID 0000.0001) // =======================================================
(PID.TID 0000.0001) %MON time_tsnumber                =                   110
(PID.TID 0000.0001) %MON time_secondsf                =   4.7520000000000E+06
(PID.TID 0000.0001) %MON dynstat_eta_max              =   7.8252612998864E-01
(PID.TID 0000.0001) %MON dynstat_eta_min              =  -1.4412549375051E+00
(PID.TID 0000.0001) %MON dynstat_eta_mean             =  -1.2840509684410E-16
(PID.TID 0000.0001) %MON dynstat_eta_sd               =   4.7966919377703E-01
(PID.TID 0000.0001) %MON dynstat_eta_del2             =   1.8946823997663E-02
(PID.TID 0000.0001) %MON dynstat_uvel_max             =   1.9758504214832E-01
(PID.TID 0000.0001) %MON dynstat_uvel_min             =  -1.4392204521471E-01
(PID.TID 0000.0001) %MON dynstat_uvel_mean            =   8.9838575089286E-04
(PID.TID 0000.0001) %MON dynstat_uvel_sd              =   1.6225802599511E-02
(PID.TID 0000.0001) %MON dynstat_uvel_del2            =   4.6554657644704E-03
(PID.TID 0000.0001) %MON dynstat_vvel_max             =   1.6544439825500E-01
(PID.TID 0000.0001) %MON dynstat_vvel_min             =  -1.3847258961878E-01
(PID.TID 0000.0001) %MON dynstat_vvel_mean            =   1.5162938452381E-03
(PID.TID 0000.0001) %MON dynstat_vvel_sd              =   1.4300775742120E-02
(PID.TID 0000.0001) %MON dynstat_vvel_del2            =   4.1657971698033E-03
(PID.TID 0000.0001) %MON dynstat_wvel_max             =   3.3527970222572E-04
(PID.TID 0000.0001) %MON dynstat_wvel_min             =  -1.8218024395573E-04
(PID.TID 0000.0001) %MON dynstat_wvel_mean            =  -3.7507692742229E-24
(PID.TID 0000.0001) %MON dynstat_wvel_sd              =   1.9827603932663E-05
(PID.TID 0000.0001) %MON dynstat_wvel_del2            =   7.5351421034114E-06
(PID.TID 0000.0001) %MON dynstat_theta_max            =   2.9869356261595E+01
(PID.TID 0000.0001) %MON dynstat_theta_min            =  -1.9268479920162E+00
(PID.TID 0000.0001) %MON dynstat_theta_mean           =   3.5885934869044E+00
(PID.TID 0000.0001) %MON dynstat_theta_sd             =   4.3341369358007E+00
(PID.TID 0000.0001) %MON dynstat_theta_del2           =   1.2801027081235E-01
(PID.TID 0000.0001) %MON dynstat_salt_max             =   3.7384418233826E+01
(PID.TID 0000.0001) %MON dynstat_salt_min             =   2.9706994768180E+01
(PID.TID 0000.0001) %MON dynstat_salt_mean            =   3.4716015798360E+01
(PID.TID 0000.0001) %MON dynstat_salt_sd              =   2.9313752479786E-01
(PID.TID 0000.0001) %MON dynstat_salt_del2            =   2.2615759650265E-02
(PID.TID 0000.0001) %MON advcfl_uvel_max              =   3.2654447059199E-02
(PID.TID 0000.0001) %MON advcfl_vvel_max              =   1.6071596585903E-02
(PID.TID 0000.0001) %MON advcfl_wvel_max              =   5.4164173380389E-02
(PID.TID 0000.0001) %MON advcfl_W_hf_max              =   6.8778598585243E-02
(PID.TID 0000.0001) %MON pe_b_mean                    =   2.9441833661872E-04
(PID.TID 0000.0001) %MON ke_max                       =   1.9066919163714E-02
(PID.TID 0000.0001) %MON ke_mean                      =   2.1282392604163E-04
(PID.TID 0000.0001) %MON ke_vol                       =   1.3226782436723E+18
(PID.TID 0000.0001) %MON vort_r_min                   =  -8.2953609702425E-07
(PID.TID 0000.0001) %MON vort_r_max                   =   6.2469674478397E-07
(PID.TID 0000.0001) %MON vort_a_mean                  =  -2.5205768774873E-05
(PID.TID 0000.0001) %MON vort_a_sd                    =   7.3403415272062E-05
(PID.TID 0000.0001) %MON vort_p_mean                  =  -3.1758668778091E-05
(PID.TID 0000.0001) %MON vort_p_sd                    =   1.3126131694685E-04
(PID.TID 0000.0001) %MON surfExpan_theta_mean         =   3.2214002825838E-06
(PID.TID 0000.0001) %MON surfExpan_salt_mean          =  -2.0312371647312E-07
(PID.TID 0000.0001) // =======================================================
(PID.TID 0000.0001) // End MONITOR dynamic field statistics
(PID.TID 0000.0001) // =======================================================
time,SST,SSS,fu,fv,Q,E-P,i0,i1,a,b =   4.7520E+06 -4.1587E-01  3.4474E+01 -1.8689E-02 -1.1950E-02  2.3212E+02  0.0000E+00     2     3  3.3333E-01  6.6667E-01
time,fu0,fu1,fu =   4.7520E+06 -1.4435E-02 -2.7199E-02 -1.8689E-02  3.3333E-01  6.6667E-01
 cg2d: Sum(rhs),rhsMax =   9.48408018786040E-14  6.91737135777516E+00
(PID.TID 0000.0001)                    cg2d_init_res =    3.38750109827006E-01
(PID.TID 0000.0001)                       cg2d_iters =    24
(PID.TID 0000.0001)                         cg2d_res =    6.11523574393746E-14
(PID.TID 0000.0001) // =======================================================
(PID.TID 0000.0001) // Begin MONITOR dynamic field statistics
(PID.TID 0000.0001) // =======================================================
(PID.TID 0000.0001) %MON time_tsnumber                =                   111
(PID.TID 0000.0001) %MON time_secondsf                =   4.7952000000000E+06
(PID.TID 0000.0001) %MON dynstat_eta_max              =   7.8611055486250E-01
(PID.TID 0000.0001) %MON dynstat_eta_min              =  -1.4480886332661E+00
(PID.TID 0000.0001) %MON dynstat_eta_mean             =  -1.7623176032084E-17
(PID.TID 0000.0001) %MON dynstat_eta_sd               =   4.8088689760759E-01
(PID.TID 0000.0001) %MON dynstat_eta_del2             =   1.8916153168298E-02
(PID.TID 0000.0001) %MON dynstat_uvel_max             =   2.0012571521644E-01
(PID.TID 0000.0001) %MON dynstat_uvel_min             =  -1.4258360024356E-01
(PID.TID 0000.0001) %MON dynstat_uvel_mean            =   9.0364633131918E-04
(PID.TID 0000.0001) %MON dynstat_uvel_sd              =   1.6311129327478E-02
(PID.TID 0000.0001) %MON dynstat_uvel_del2            =   4.6457047512799E-03
(PID.TID 0000.0001) %MON dynstat_vvel_max             =   1.6674204837046E-01
(PID.TID 0000.0001) %MON dynstat_vvel_min             =  -1.3988710146889E-01
(PID.TID 0000.0001) %MON dynstat_vvel_mean            =   1.5637182568679E-03
(PID.TID 0000.0001) %MON dynstat_vvel_sd              =   1.4296619493108E-02
(PID.TID 0000.0001) %MON dynstat_vvel_del2            =   4.1604896821789E-03
(PID.TID 0000.0001) %MON dynstat_wvel_max             =   3.3008017688449E-04
(PID.TID 0000.0001) %MON dynstat_wvel_min             =  -1.8033435746491E-04
(PID.TID 0000.0001) %MON dynstat_wvel_mean            =   4.5789492656721E-22
(PID.TID 0000.0001) %MON dynstat_wvel_sd              =   1.9745818581856E-05
(PID.TID 0000.0001) %MON dynstat_wvel_del2            =   7.4990306834194E-06
(PID.TID 0000.0001) %MON dynstat_theta_max            =   2.9873675813266E+01
(PID.TID 0000.0001) %MON dynstat_theta_min            =  -1.9269929397134E+00
(PID.TID 0000.0001) %MON dynstat_theta_mean           =   3.5886022799125E+00
(PID.TID 0000.0001) %MON dynstat_theta_sd             =   4.3342607098768E+00
(PID.TID 0000.0001) %MON dynstat_theta_del2           =   1.2789392454634E-01
(PID.TID 0000.0001) %MON dynstat_salt_max             =   3.7383962222431E+01
(PID.TID 0000.0001) %MON dynstat_salt_min             =   2.9705600302757E+01
(PID.TID 0000.0001) %MON dynstat_salt_mean            =   3.4716018778935E+01
(PID.TID 0000.0001) %MON dynstat_salt_sd              =   2.9310508786073E-01
(PID.TID 0000.0001) %MON dynstat_salt_del2            =   2.2584159302062E-02
(PID.TID 0000.0001) %MON advcfl_uvel_max              =   3.3074338531223E-02
(PID.TID 0000.0001) %MON advcfl_vvel_max              =   1.6197652888717E-02
(PID.TID 0000.0001) %MON advcfl_wvel_max              =   5.0762407672437E-02
(PID.TID 0000.0001) %MON advcfl_W_hf_max              =   6.8159791299970E-02
(PID.TID 0000.0001) %MON pe_b_mean                    =   2.9591507399118E-04
(PID.TID 0000.0001) %MON ke_max                       =   1.9762897671275E-02
(PID.TID 0000.0001) %MON ke_mean                      =   2.1410174997217E-04
(PID.TID 0000.0001) %MON ke_vol                       =   1.3226782436723E+18
(PID.TID 0000.0001) %MON vort_r_min                   =  -8.3282299907367E-07
(PID.TID 0000.0001) %MON vort_r_max                   =   6.2894038509670E-07
(PID.TID 0000.0001) %MON vort_a_mean                  =  -2.5205768809052E-05
(PID.TID 0000.0001) %MON vort_a_sd                    =   7.3403414891546E-05
(PID.TID 0000.0001) %MON vort_p_mean                  =  -3.1758668821156E-05
(PID.TID 0000.0001) %MON vort_p_sd                    =   1.3126125948029E-04
(PID.TID 0000.0001) %MON surfExpan_theta_mean         =   2.9151068458835E-06
(PID.TID 0000.0001) %MON surfExpan_salt_mean          =  -2.4716211804745E-07
(PID.TID 0000.0001) // =======================================================
(PID.TID 0000.0001) // End MONITOR dynamic field statistics
(PID.TID 0000.0001) // =======================================================
time,SST,SSS,fu,fv,Q,E-P,i0,i1,a,b =   4.7952E+06 -4.1007E-01  3.4476E+01 -1.8902E-02 -1.1665E-02  2.3170E+02  0.0000E+00     2     3  3.5000E-01  6.5000E-01
time,fu0,fu1,fu =   4.7952E+06 -1.4435E-02 -2.7199E-02 -1.8902E-02  3.5000E-01  6.5000E-01
 cg2d: Sum(rhs),rhsMax =  -6.40126840423250E-13  6.98488818955035E+00
(PID.TID 0000.0001)                    cg2d_init_res =    3.34730022101872E-01
(PID.TID 0000.0001)                       cg2d_iters =    24
(PID.TID 0000.0001)                         cg2d_res =    5.75069669928193E-14
(PID.TID 0000.0001) // =======================================================
(PID.TID 0000.0001) // Begin MONITOR dynamic field statistics
(PID.TID 0000.0001) // =======================================================
(PID.TID 0000.0001) %MON time_tsnumber                =                   112
(PID.TID 0000.0001) %MON time_secondsf                =   4.8384000000000E+06
(PID.TID 0000.0001) %MON dynstat_eta_max              =   7.9417108497466E-01
(PID.TID 0000.0001) %MON dynstat_eta_min              =  -1.4539277360637E+00
(PID.TID 0000.0001) %MON dynstat_eta_mean             =   7.2104396336711E-18
(PID.TID 0000.0001) %MON dynstat_eta_sd               =   4.8210722217372E-01
(PID.TID 0000.0001) %MON dynstat_eta_del2             =   1.8891886041609E-02
(PID.TID 0000.0001) %MON dynstat_uvel_max             =   2.0187102187470E-01
(PID.TID 0000.0001) %MON dynstat_uvel_min             =  -1.4130237759920E-01
(PID.TID 0000.0001) %MON dynstat_uvel_mean            =   9.0987051998972E-04
(PID.TID 0000.0001) %MON dynstat_uvel_sd              =   1.6387213251775E-02
(PID.TID 0000.0001) %MON dynstat_uvel_del2            =   4.6347348228976E-03
(PID.TID 0000.0001) %MON dynstat_vvel_max             =   1.6789263376572E-01
(PID.TID 0000.0001) %MON dynstat_vvel_min             =  -1.4110975302980E-01
(PID.TID 0000.0001) %MON dynstat_vvel_mean            =   1.6029745930978E-03
(PID.TID 0000.0001) %MON dynstat_vvel_sd              =   1.4295278744443E-02
(PID.TID 0000.0001) %MON dynstat_vvel_del2            =   4.1558255038800E-03
(PID.TID 0000.0001) %MON dynstat_wvel_max             =   3.2481216597747E-04
(PID.TID 0000.0001) %MON dynstat_wvel_min             =  -1.7843363658879E-04
(PID.TID 0000.0001) %MON dynstat_wvel_mean            =   2.8353711855233E-22
(PID.TID 0000.0001) %MON dynstat_wvel_sd              =   1.9660754436974E-05
(PID.TID 0000.0001) %MON dynstat_wvel_del2            =   7.4599610426231E-06
(PID.TID 0000.0001) %MON dynstat_theta_max            =   2.9877649802830E+01
(PID.TID 0000.0001) %MON dynstat_theta_min            =  -1.9270847281132E+00
(PID.TID 0000.0001) %MON dynstat_theta_mean           =   3.5886137130296E+00
(PID.TID 0000.0001) %MON dynstat_theta_sd             =   4.3343921019902E+00
(PID.TID 0000.0001) %MON dynstat_theta_del2           =   1.2776510284789E-01
(PID.TID 0000.0001) %MON dynstat_salt_max             =   3.7383502536512E+01
(PID.TID 0000.0001) %MON dynstat_salt_min             =   2.9704244680211E+01
(PID.TID 0000.0001) %MON dynstat_salt_mean            =   3.4716022285873E+01
(PID.TID 0000.0001) %MON dynstat_salt_sd              =   2.9307244740664E-01
(PID.TID 0000.0001) %MON dynstat_salt_del2            =   2.2554123131140E-02
(PID.TID 0000.0001) %MON advcfl_uvel_max              =   3.3362781539128E-02
(PID.TID 0000.0001) %MON advcfl_vvel_max              =   1.6309423033281E-02
(PID.TID 0000.0001) %MON advcfl_wvel_max              =   5.5650261295083E-02
(PID.TID 0000.0001) %MON advcfl_W_hf_max              =   6.7058879481549E-02
(PID.TID 0000.0001) %MON pe_b_mean                    =   2.9741883974270E-04
(PID.TID 0000.0001) %MON ke_max                       =   2.0340532711030E-02
(PID.TID 0000.0001) %MON ke_mean                      =   2.1527573098150E-04
(PID.TID 0000.0001) %MON ke_vol                       =   1.3226782436723E+18
(PID.TID 0000.0001) %MON vort_r_min                   =  -8.3505875757518E-07
(PID.TID 0000.0001) %MON vort_r_max                   =   6.3131794580029E-07
(PID.TID 0000.0001) %MON vort_a_mean                  =  -2.5205768842754E-05
(PID.TID 0000.0001) %MON vort_a_sd                    =   7.3403414801416E-05
(PID.TID 0000.0001) %MON vort_p_mean                  =  -3.1758668863620E-05
(PID.TID 0000.0001) %MON vort_p_sd                    =   1.3126120561099E-04
(PID.TID 0000.0001) %MON surfExpan_theta_mean         =   2.6273105593517E-06
(PID.TID 0000.0001) %MON surfExpan_salt_mean          =  -2.9286748063649E-07
(PID.TID 0000.0001) // =======================================================
(PID.TID 0000.0001) // End MONITOR dynamic field statistics
(PID.TID 0000.0001) // =======================================================
time,SST,SSS,fu,fv,Q,E-P,i0,i1,a,b =   4.8384E+06 -4.0427E-01  3.4479E+01 -1.9115E-02 -1.1381E-02  2.3128E+02  0.0000E+00     2     3  3.6667E-01  6.3333E-01
time,fu0,fu1,fu =   4.8384E+06 -1.4435E-02 -2.7199E-02 -1.9115E-02  3.6667E-01  6.3333E-01
 cg2d: Sum(rhs),rhsMax =  -4.65197325105748E-13  7.04590482842853E+00
(PID.TID 0000.0001)                    cg2d_init_res =    3.28825666456509E-01
(PID.TID 0000.0001)                       cg2d_iters =    24
(PID.TID 0000.0001)                         cg2d_res =    5.39216916599537E-14
(PID.TID 0000.0001) // =======================================================
(PID.TID 0000.0001) // Begin MONITOR dynamic field statistics
(PID.TID 0000.0001) // =======================================================
(PID.TID 0000.0001) %MON time_tsnumber                =                   113
(PID.TID 0000.0001) %MON time_secondsf                =   4.8816000000000E+06
(PID.TID 0000.0001) %MON dynstat_eta_max              =   8.0147594999201E-01
(PID.TID 0000.0001) %MON dynstat_eta_min              =  -1.4589394343542E+00
(PID.TID 0000.0001) %MON dynstat_eta_mean             =   8.7091315306447E-17
(PID.TID 0000.0001) %MON dynstat_eta_sd               =   4.8332544823268E-01
(PID.TID 0000.0001) %MON dynstat_eta_del2             =   1.8875812314438E-02
(PID.TID 0000.0001) %MON dynstat_uvel_max             =   2.0280503610088E-01
(PID.TID 0000.0001) %MON dynstat_uvel_min             =  -1.4034998227137E-01
(PID.TID 0000.0001) %MON dynstat_uvel_mean            =   9.1679252380815E-04
(PID.TID 0000.0001) %MON dynstat_uvel_sd              =   1.6453804233359E-02
(PID.TID 0000.0001) %MON dynstat_uvel_del2            =   4.6224539538654E-03
(PID.TID 0000.0001) %MON dynstat_vvel_max             =   1.6889408696478E-01
(PID.TID 0000.0001) %MON dynstat_vvel_min             =  -1.4214174345971E-01
(PID.TID 0000.0001) %MON dynstat_vvel_mean            =   1.6341726941374E-03
(PID.TID 0000.0001) %MON dynstat_vvel_sd              =   1.4295076603693E-02
(PID.TID 0000.0001) %MON dynstat_vvel_del2            =   4.1506747185742E-03
(PID.TID 0000.0001) %MON dynstat_wvel_max             =   3.1950741425000E-04
(PID.TID 0000.0001) %MON dynstat_wvel_min             =  -1.7717653470770E-04
(PID.TID 0000.0001) %MON dynstat_wvel_mean            =  -1.6361820985661E-24
(PID.TID 0000.0001) %MON dynstat_wvel_sd              =   1.9571377520351E-05
(PID.TID 0000.0001) %MON dynstat_wvel_del2            =   7.4214002973378E-06
(PID.TID 0000.0001) %MON dynstat_theta_max            =   2.9881193970236E+01
(PID.TID 0000.0001) %MON dynstat_theta_min            =  -1.9271187606360E+00
(PID.TID 0000.0001) %MON dynstat_theta_mean           =   3.5886274817192E+00
(PID.TID 0000.0001) %MON dynstat_theta_sd             =   4.3345295522216E+00
(PID.TID 0000.0001) %MON dynstat_theta_del2           =   1.2763224698182E-01
(PID.TID 0000.0001) %MON dynstat_salt_max             =   3.7383040170740E+01
(PID.TID 0000.0001) %MON dynstat_salt_min             =   2.9702928292561E+01
(PID.TID 0000.0001) %MON dynstat_salt_mean            =   3.4716026315834E+01
(PID.TID 0000.0001) %MON dynstat_salt_sd              =   2.9303971283642E-01
(PID.TID 0000.0001) %MON dynstat_salt_del2            =   2.2523918002700E-02
(PID.TID 0000.0001) %MON advcfl_uvel_max              =   3.3517144024109E-02
(PID.TID 0000.0001) %MON advcfl_vvel_max              =   1.6406706180881E-02
(PID.TID 0000.0001) %MON advcfl_wvel_max              =   6.0681811757953E-02
(PID.TID 0000.0001) %MON advcfl_W_hf_max              =   6.8138525479766E-02
(PID.TID 0000.0001) %MON pe_b_mean                    =   2.9892382094928E-04
(PID.TID 0000.0001) %MON ke_max                       =   2.0790833913122E-02
(PID.TID 0000.0001) %MON ke_mean                      =   2.1631776980902E-04
(PID.TID 0000.0001) %MON ke_vol                       =   1.3226782436723E+18
(PID.TID 0000.0001) %MON vort_r_min                   =  -8.3629884676912E-07
(PID.TID 0000.0001) %MON vort_r_max                   =   6.3181973107304E-07
(PID.TID 0000.0001) %MON vort_a_mean                  =  -2.5205768875859E-05
(PID.TID 0000.0001) %MON vort_a_sd                    =   7.3403414915762E-05
(PID.TID 0000.0001) %MON vort_p_mean                  =  -3.1758668905332E-05
(PID.TID 0000.0001) %MON vort_p_sd                    =   1.3126115543728E-04
(PID.TID 0000.0001) %MON surfExpan_theta_mean         =   2.3637297081462E-06
(PID.TID 0000.0001) %MON surfExpan_salt_mean          =  -3.3909403265446E-07
(PID.TID 0000.0001) // =======================================================
(PID.TID 0000.0001) // End MONITOR dynamic field statistics
(PID.TID 0000.0001) // =======================================================
time,SST,SSS,fu,fv,Q,E-P,i0,i1,a,b =   4.8816E+06 -3.9848E-01  3.4482E+01 -1.9328E-02 -1.1097E-02  2.3087E+02  0.0000E+00     2     3  3.8333E-01  6.1667E-01
time,fu0,fu1,fu =   4.8816E+06 -1.4435E-02 -2.7199E-02 -1.9328E-02  3.8333E-01  6.1667E-01
 cg2d: Sum(rhs),rhsMax =   1.24136811940900E-13  7.09712851235891E+00
(PID.TID 0000.0001)                    cg2d_init_res =    3.21323076756125E-01
(PID.TID 0000.0001)                       cg2d_iters =    24
(PID.TID 0000.0001)                         cg2d_res =    5.10000061385466E-14
(PID.TID 0000.0001) // =======================================================
(PID.TID 0000.0001) // Begin MONITOR dynamic field statistics
(PID.TID 0000.0001) // =======================================================
(PID.TID 0000.0001) %MON time_tsnumber                =                   114
(PID.TID 0000.0001) %MON time_secondsf                =   4.9248000000000E+06
(PID.TID 0000.0001) %MON dynstat_eta_max              =   8.0765448587160E-01
(PID.TID 0000.0001) %MON dynstat_eta_min              =  -1.4632938481161E+00
(PID.TID 0000.0001) %MON dynstat_eta_mean             =  -1.9059437907647E-16
(PID.TID 0000.0001) %MON dynstat_eta_sd               =   4.8453579838082E-01
(PID.TID 0000.0001) %MON dynstat_eta_del2             =   1.8853563570415E-02
(PID.TID 0000.0001) %MON dynstat_uvel_max             =   2.0292685505809E-01
(PID.TID 0000.0001) %MON dynstat_uvel_min             =  -1.3927723720120E-01
(PID.TID 0000.0001) %MON dynstat_uvel_mean            =   9.2411287455963E-04
(PID.TID 0000.0001) %MON dynstat_uvel_sd              =   1.6511140596093E-02
(PID.TID 0000.0001) %MON dynstat_uvel_del2            =   4.6081242188944E-03
(PID.TID 0000.0001) %MON dynstat_vvel_max             =   1.6974516835551E-01
(PID.TID 0000.0001) %MON dynstat_vvel_min             =  -1.4298633593787E-01
(PID.TID 0000.0001) %MON dynstat_vvel_mean            =   1.6575623295869E-03
(PID.TID 0000.0001) %MON dynstat_vvel_sd              =   1.4294249597941E-02
(PID.TID 0000.0001) %MON dynstat_vvel_del2            =   4.1445246136860E-03
(PID.TID 0000.0001) %MON dynstat_wvel_max             =   3.1419725266719E-04
(PID.TID 0000.0001) %MON dynstat_wvel_min             =  -1.7744018774108E-04
(PID.TID 0000.0001) %MON dynstat_wvel_mean            =  -3.8658509169187E-23
(PID.TID 0000.0001) %MON dynstat_wvel_sd              =   1.9477112464063E-05
(PID.TID 0000.0001) %MON dynstat_wvel_del2            =   7.3809983465531E-06
(PID.TID 0000.0001) %MON dynstat_theta_max            =   2.9884283858069E+01
(PID.TID 0000.0001) %MON dynstat_theta_min            =  -1.9290501134148E+00
(PID.TID 0000.0001) %MON dynstat_theta_mean           =   3.5886432236519E+00
(PID.TID 0000.0001) %MON dynstat_theta_sd             =   4.3346714632223E+00
(PID.TID 0000.0001) %MON dynstat_theta_del2           =   1.2749363268116E-01
(PID.TID 0000.0001) %MON dynstat_salt_max             =   3.7382576471112E+01
(PID.TID 0000.0001) %MON dynstat_salt_min             =   2.9701651335489E+01
(PID.TID 0000.0001) %MON dynstat_salt_mean            =   3.4716030852689E+01
(PID.TID 0000.0001) %MON dynstat_salt_sd              =   2.9300696495271E-01
(PID.TID 0000.0001) %MON dynstat_salt_del2            =   2.2493644228952E-02
(PID.TID 0000.0001) %MON advcfl_uvel_max              =   3.3537276776295E-02
(PID.TID 0000.0001) %MON advcfl_vvel_max              =   1.6489381913138E-02
(PID.TID 0000.0001) %MON advcfl_wvel_max              =   6.4270281196295E-02
(PID.TID 0000.0001) %MON advcfl_W_hf_max              =   7.2174805171895E-02
(PID.TID 0000.0001) %MON pe_b_mean                    =   3.0042283370620E-04
(PID.TID 0000.0001) %MON ke_max                       =   2.1107519368862E-02
(PID.TID 0000.0001) %MON ke_mean                      =   2.1720653937525E-04
(PID.TID 0000.0001) %MON ke_vol                       =   1.3226782436723E+18
(PID.TID 0000.0001) %MON vort_r_min                   =  -8.3660660995329E-07
(PID.TID 0000.0001) %MON vort_r_max                   =   6.3046068072903E-07
(PID.TID 0000.0001) %MON vort_a_mean                  =  -2.5205768908115E-05
(PID.TID 0000.0001) %MON vort_a_sd                    =   7.3403415144017E-05
(PID.TID 0000.0001) %MON vort_p_mean                  =  -3.1758668945973E-05
(PID.TID 0000.0001) %MON vort_p_sd                    =   1.3126110896821E-04
(PID.TID 0000.0001) %MON surfExpan_theta_mean         =   2.1307577208949E-06
(PID.TID 0000.0001) %MON surfExpan_salt_mean          =  -3.8464011482337E-07
(PID.TID 0000.0001) // =======================================================
(PID.TID 0000.0001) // End MONITOR dynamic field statistics
(PID.TID 0000.0001) // =======================================================
time,SST,SSS,fu,fv,Q,E-P,i0,i1,a,b =   4.9248E+06 -3.9268E-01  3.4484E+01 -1.9540E-02 -1.0813E-02  2.3045E+02  0.0000E+00     2     3  4.0000E-01  6.0000E-01
time,fu0,fu1,fu =   4.9248E+06 -1.4435E-02 -2.7199E-02 -1.9540E-02  4.0000E-01  6.0000E-01
 cg2d: Sum(rhs),rhsMax =  -7.04436509124662E-14  7.13562363429362E+00
(PID.TID 0000.0001)                    cg2d_init_res =    3.12662124280008E-01
(PID.TID 0000.0001)                       cg2d_iters =    24
(PID.TID 0000.0001)                         cg2d_res =    4.92032787660003E-14
(PID.TID 0000.0001) // =======================================================
(PID.TID 0000.0001) // Begin MONITOR dynamic field statistics
(PID.TID 0000.0001) // =======================================================
(PID.TID 0000.0001) %MON time_tsnumber                =                   115
(PID.TID 0000.0001) %MON time_secondsf                =   4.9680000000000E+06
(PID.TID 0000.0001) %MON dynstat_eta_max              =   8.1237655858110E-01
(PID.TID 0000.0001) %MON dynstat_eta_min              =  -1.4671566884012E+00
(PID.TID 0000.0001) %MON dynstat_eta_mean             =   1.8593128565782E-17
(PID.TID 0000.0001) %MON dynstat_eta_sd               =   4.8573194641428E-01
(PID.TID 0000.0001) %MON dynstat_eta_del2             =   1.8843596744161E-02
(PID.TID 0000.0001) %MON dynstat_uvel_max             =   2.0225032611480E-01
(PID.TID 0000.0001) %MON dynstat_uvel_min             =  -1.3809159911776E-01
(PID.TID 0000.0001) %MON dynstat_uvel_mean            =   9.3150938316392E-04
(PID.TID 0000.0001) %MON dynstat_uvel_sd              =   1.6559845103092E-02
(PID.TID 0000.0001) %MON dynstat_uvel_del2            =   4.5921797532935E-03
(PID.TID 0000.0001) %MON dynstat_vvel_max             =   1.7044542470573E-01
(PID.TID 0000.0001) %MON dynstat_vvel_min             =  -1.4364868039482E-01
(PID.TID 0000.0001) %MON dynstat_vvel_mean            =   1.6735191086768E-03
(PID.TID 0000.0001) %MON dynstat_vvel_sd              =   1.4291050792351E-02
(PID.TID 0000.0001) %MON dynstat_vvel_del2            =   4.1380701080831E-03
(PID.TID 0000.0001) %MON dynstat_wvel_max             =   3.0890766286376E-04
(PID.TID 0000.0001) %MON dynstat_wvel_min             =  -1.7712865772629E-04
(PID.TID 0000.0001) %MON dynstat_wvel_mean            =  -3.9664574909303E-22
(PID.TID 0000.0001) %MON dynstat_wvel_sd              =   1.9377840831238E-05
(PID.TID 0000.0001) %MON dynstat_wvel_del2            =   7.3398817957167E-06
(PID.TID 0000.0001) %MON dynstat_theta_max            =   2.9886901883584E+01
(PID.TID 0000.0001) %MON dynstat_theta_min            =  -1.9280857097383E+00
(PID.TID 0000.0001) %MON dynstat_theta_mean           =   3.5886605192314E+00
(PID.TID 0000.0001) %MON dynstat_theta_sd             =   4.3348159611862E+00
(PID.TID 0000.0001) %MON dynstat_theta_del2           =   1.2735350120701E-01
(PID.TID 0000.0001) %MON dynstat_salt_max             =   3.7382112978979E+01
(PID.TID 0000.0001) %MON dynstat_salt_min             =   2.9700413782424E+01
(PID.TID 0000.0001) %MON dynstat_salt_mean            =   3.4716035866208E+01
(PID.TID 0000.0001) %MON dynstat_salt_sd              =   2.9297425967514E-01
(PID.TID 0000.0001) %MON dynstat_salt_del2            =   2.2463959451966E-02
(PID.TID 0000.0001) %MON advcfl_uvel_max              =   3.3425468319933E-02
(PID.TID 0000.0001) %MON advcfl_vvel_max              =   1.6557406202181E-02
(PID.TID 0000.0001) %MON advcfl_wvel_max              =   6.6544582487285E-02
(PID.TID 0000.0001) %MON advcfl_W_hf_max              =   7.4729549643292E-02
(PID.TID 0000.0001) %MON pe_b_mean                    =   3.0190794063696E-04
(PID.TID 0000.0001) %MON ke_max                       =   2.1287150448719E-02
(PID.TID 0000.0001) %MON ke_mean                      =   2.1792735500605E-04
(PID.TID 0000.0001) %MON ke_vol                       =   1.3226782436723E+18
(PID.TID 0000.0001) %MON vort_r_min                   =  -8.3605167031278E-07
(PID.TID 0000.0001) %MON vort_r_max                   =   6.2728133333603E-07
(PID.TID 0000.0001) %MON vort_a_mean                  =  -2.5205768939521E-05
(PID.TID 0000.0001) %MON vort_a_sd                    =   7.3403415389534E-05
(PID.TID 0000.0001) %MON vort_p_mean                  =  -3.1758668985543E-05
(PID.TID 0000.0001) %MON vort_p_sd                    =   1.3126106622401E-04
(PID.TID 0000.0001) %MON surfExpan_theta_mean         =   1.9342364194013E-06
(PID.TID 0000.0001) %MON surfExpan_salt_mean          =  -4.2835869667972E-07
(PID.TID 0000.0001) // =======================================================
(PID.TID 0000.0001) // End MONITOR dynamic field statistics
(PID.TID 0000.0001) // =======================================================
time,SST,SSS,fu,fv,Q,E-P,i0,i1,a,b =   4.9680E+06 -3.8688E-01  3.4487E+01 -1.9753E-02 -1.0528E-02  2.3003E+02  0.0000E+00     2     3  4.1667E-01  5.8333E-01
time,fu0,fu1,fu =   4.9680E+06 -1.4435E-02 -2.7199E-02 -1.9753E-02  4.1667E-01  5.8333E-01
 cg2d: Sum(rhs),rhsMax =  -1.37459488236402E-13  7.15894885759352E+00
(PID.TID 0000.0001)                    cg2d_init_res =    3.03393783266136E-01
(PID.TID 0000.0001)                       cg2d_iters =    24
(PID.TID 0000.0001)                         cg2d_res =    4.88629109884810E-14
(PID.TID 0000.0001) // =======================================================
(PID.TID 0000.0001) // Begin MONITOR dynamic field statistics
(PID.TID 0000.0001) // =======================================================
(PID.TID 0000.0001) %MON time_tsnumber                =                   116
(PID.TID 0000.0001) %MON time_secondsf                =   5.0112000000000E+06
(PID.TID 0000.0001) %MON dynstat_eta_max              =   8.1536776534344E-01
(PID.TID 0000.0001) %MON dynstat_eta_min              =  -1.4706829416811E+00
(PID.TID 0000.0001) %MON dynstat_eta_mean             =   1.8499025264164E-17
(PID.TID 0000.0001) %MON dynstat_eta_sd               =   4.8690765536785E-01
(PID.TID 0000.0001) %MON dynstat_eta_del2             =   1.8854162780544E-02
(PID.TID 0000.0001) %MON dynstat_uvel_max             =   2.0080339598103E-01
(PID.TID 0000.0001) %MON dynstat_uvel_min             =  -1.3680119891443E-01
(PID.TID 0000.0001) %MON dynstat_uvel_mean            =   9.3863731711475E-04
(PID.TID 0000.0001) %MON dynstat_uvel_sd              =   1.6600797398023E-02
(PID.TID 0000.0001) %MON dynstat_uvel_del2            =   4.5754000993813E-03
(PID.TID 0000.0001) %MON dynstat_vvel_max             =   1.7099512315441E-01
(PID.TID 0000.0001) %MON dynstat_vvel_min             =  -1.4413561609261E-01
(PID.TID 0000.0001) %MON dynstat_vvel_mean            =   1.6825219589361E-03
(PID.TID 0000.0001) %MON dynstat_vvel_sd              =   1.4283854831435E-02
(PID.TID 0000.0001) %MON dynstat_vvel_del2            =   4.1304508097190E-03
(PID.TID 0000.0001) %MON dynstat_wvel_max             =   3.0366201506993E-04
(PID.TID 0000.0001) %MON dynstat_wvel_min             =  -1.7628566764557E-04
(PID.TID 0000.0001) %MON dynstat_wvel_mean            =   4.4658546123188E-22
(PID.TID 0000.0001) %MON dynstat_wvel_sd              =   1.9273724424707E-05
(PID.TID 0000.0001) %MON dynstat_wvel_del2            =   7.2975785256177E-06
(PID.TID 0000.0001) %MON dynstat_theta_max            =   2.9888962429887E+01
(PID.TID 0000.0001) %MON dynstat_theta_min            =  -1.9277394022188E+00
(PID.TID 0000.0001) %MON dynstat_theta_mean           =   3.5886788735027E+00
(PID.TID 0000.0001) %MON dynstat_theta_sd             =   4.3349610165066E+00
(PID.TID 0000.0001) %MON dynstat_theta_del2           =   1.2721366708989E-01
(PID.TID 0000.0001) %MON dynstat_salt_max             =   3.7381651410213E+01
(PID.TID 0000.0001) %MON dynstat_salt_min             =   2.9699215353739E+01
(PID.TID 0000.0001) %MON dynstat_salt_mean            =   3.4716041314053E+01
(PID.TID 0000.0001) %MON dynstat_salt_sd              =   2.9294160096321E-01
(PID.TID 0000.0001) %MON dynstat_salt_del2            =   2.2437011188828E-02
(PID.TID 0000.0001) %MON advcfl_uvel_max              =   3.3186337346567E-02
(PID.TID 0000.0001) %MON advcfl_vvel_max              =   1.6610804998419E-02
(PID.TID 0000.0001) %MON advcfl_wvel_max              =   6.7667390861742E-02
(PID.TID 0000.0001) %MON advcfl_W_hf_max              =   7.5818130572662E-02
(PID.TID 0000.0001) %MON pe_b_mean                    =   3.0337123929383E-04
(PID.TID 0000.0001) %MON ke_max                       =   2.1329163734183E-02
(PID.TID 0000.0001) %MON ke_mean                      =   2.1847162388213E-04
(PID.TID 0000.0001) %MON ke_vol                       =   1.3226782436723E+18
(PID.TID 0000.0001) %MON vort_r_min                   =  -8.3470835510332E-07
(PID.TID 0000.0001) %MON vort_r_max                   =   6.2234810099505E-07
(PID.TID 0000.0001) %MON vort_a_mean                  =  -2.5205768969777E-05
(PID.TID 0000.0001) %MON vort_a_sd                    =   7.3403415556905E-05
(PID.TID 0000.0001) %MON vort_p_mean                  =  -3.1758669023665E-05
(PID.TID 0000.0001) %MON vort_p_sd                    =   1.3126102710895E-04
(PID.TID 0000.0001) %MON surfExpan_theta_mean         =   1.7798984826611E-06
(PID.TID 0000.0001) %MON surfExpan_salt_mean          =  -4.6910452743541E-07
(PID.TID 0000.0001) // =======================================================
(PID.TID 0000.0001) // End MONITOR dynamic field statistics
(PID.TID 0000.0001) // =======================================================
time,SST,SSS,fu,fv,Q,E-P,i0,i1,a,b =   5.0112E+06 -3.8108E-01  3.4490E+01 -1.9966E-02 -1.0244E-02  2.2961E+02  0.0000E+00     2     3  4.3333E-01  5.6667E-01
time,fu0,fu1,fu =   5.0112E+06 -1.4435E-02 -2.7199E-02 -1.9966E-02  4.3333E-01  5.6667E-01
 cg2d: Sum(rhs),rhsMax =  -2.83273404733109E-13  7.16526421294214E+00
(PID.TID 0000.0001)                    cg2d_init_res =    2.94125377909731E-01
(PID.TID 0000.0001)                       cg2d_iters =    24
(PID.TID 0000.0001)                         cg2d_res =    5.00423742850272E-14
(PID.TID 0000.0001) // =======================================================
(PID.TID 0000.0001) // Begin MONITOR dynamic field statistics
(PID.TID 0000.0001) // =======================================================
(PID.TID 0000.0001) %MON time_tsnumber                =                   117
(PID.TID 0000.0001) %MON time_secondsf                =   5.0544000000000E+06
(PID.TID 0000.0001) %MON dynstat_eta_max              =   8.1642134287376E-01
(PID.TID 0000.0001) %MON dynstat_eta_min              =  -1.4740116449264E+00
(PID.TID 0000.0001) %MON dynstat_eta_mean             =  -3.0821551876998E-18
(PID.TID 0000.0001) %MON dynstat_eta_sd               =   4.8805745508694E-01
(PID.TID 0000.0001) %MON dynstat_eta_del2             =   1.8856779164233E-02
(PID.TID 0000.0001) %MON dynstat_uvel_max             =   1.9862724679611E-01
(PID.TID 0000.0001) %MON dynstat_uvel_min             =  -1.3618146800265E-01
(PID.TID 0000.0001) %MON dynstat_uvel_mean            =   9.4514011027176E-04
(PID.TID 0000.0001) %MON dynstat_uvel_sd              =   1.6635002748131E-02
(PID.TID 0000.0001) %MON dynstat_uvel_del2            =   4.5586485732827E-03
(PID.TID 0000.0001) %MON dynstat_vvel_max             =   1.7139516753542E-01
(PID.TID 0000.0001) %MON dynstat_vvel_min             =  -1.4445545675499E-01
(PID.TID 0000.0001) %MON dynstat_vvel_mean            =   1.6851303984713E-03
(PID.TID 0000.0001) %MON dynstat_vvel_sd              =   1.4271252786210E-02
(PID.TID 0000.0001) %MON dynstat_vvel_del2            =   4.1223215938433E-03
(PID.TID 0000.0001) %MON dynstat_wvel_max             =   2.9848072220489E-04
(PID.TID 0000.0001) %MON dynstat_wvel_min             =  -1.7551350928067E-04
(PID.TID 0000.0001) %MON dynstat_wvel_mean            =   1.3281279685760E-22
(PID.TID 0000.0001) %MON dynstat_wvel_sd              =   1.9165199895123E-05
(PID.TID 0000.0001) %MON dynstat_wvel_del2            =   7.2527132611689E-06
(PID.TID 0000.0001) %MON dynstat_theta_max            =   2.9890412066720E+01
(PID.TID 0000.0001) %MON dynstat_theta_min            =  -1.9273585647465E+00
(PID.TID 0000.0001) %MON dynstat_theta_mean           =   3.5886977215247E+00
(PID.TID 0000.0001) %MON dynstat_theta_sd             =   4.3351045069577E+00
(PID.TID 0000.0001) %MON dynstat_theta_del2           =   1.2708972482172E-01
(PID.TID 0000.0001) %MON dynstat_salt_max             =   3.7381193400123E+01
(PID.TID 0000.0001) %MON dynstat_salt_min             =   2.9698055490110E+01
(PID.TID 0000.0001) %MON dynstat_salt_mean            =   3.4716047141042E+01
(PID.TID 0000.0001) %MON dynstat_salt_sd              =   2.9290938623450E-01
(PID.TID 0000.0001) %MON dynstat_salt_del2            =   2.2414959092100E-02
(PID.TID 0000.0001) %MON advcfl_uvel_max              =   3.2826689938144E-02
(PID.TID 0000.0001) %MON advcfl_vvel_max              =   1.6649666102064E-02
(PID.TID 0000.0001) %MON advcfl_wvel_max              =   6.7368774248238E-02
(PID.TID 0000.0001) %MON advcfl_W_hf_max              =   7.5490076130696E-02
(PID.TID 0000.0001) %MON pe_b_mean                    =   3.0480571260654E-04
(PID.TID 0000.0001) %MON ke_max                       =   2.1235817049556E-02
(PID.TID 0000.0001) %MON ke_mean                      =   2.1883606374832E-04
(PID.TID 0000.0001) %MON ke_vol                       =   1.3226782436723E+18
(PID.TID 0000.0001) %MON vort_r_min                   =  -8.3265412395627E-07
(PID.TID 0000.0001) %MON vort_r_max                   =   6.1575275009543E-07
(PID.TID 0000.0001) %MON vort_a_mean                  =  -2.5205768998587E-05
(PID.TID 0000.0001) %MON vort_a_sd                    =   7.3403415551326E-05
(PID.TID 0000.0001) %MON vort_p_mean                  =  -3.1758669059965E-05
(PID.TID 0000.0001) %MON vort_p_sd                    =   1.3126099147472E-04
(PID.TID 0000.0001) %MON surfExpan_theta_mean         =   1.6725058154129E-06
(PID.TID 0000.0001) %MON surfExpan_salt_mean          =  -5.0577899637187E-07
(PID.TID 0000.0001) // =======================================================
(PID.TID 0000.0001) // End MONITOR dynamic field statistics
(PID.TID 0000.0001) // =======================================================
time,SST,SSS,fu,fv,Q,E-P,i0,i1,a,b =   5.0544E+06 -3.7528E-01  3.4492E+01 -2.0179E-02 -9.9597E-03  2.2919E+02  0.0000E+00     2     3  4.5000E-01  5.5000E-01
time,fu0,fu1,fu =   5.0544E+06 -1.4435E-02 -2.7199E-02 -2.0179E-02  4.5000E-01  5.5000E-01
 cg2d: Sum(rhs),rhsMax =   1.51795243041875E-13  7.15340831361199E+00
(PID.TID 0000.0001)                    cg2d_init_res =    2.85501742614311E-01
(PID.TID 0000.0001)                       cg2d_iters =    24
(PID.TID 0000.0001)                         cg2d_res =    5.23404082961858E-14
(PID.TID 0000.0001) // =======================================================
(PID.TID 0000.0001) // Begin MONITOR dynamic field statistics
(PID.TID 0000.0001) // =======================================================
(PID.TID 0000.0001) %MON time_tsnumber                =                   118
(PID.TID 0000.0001) %MON time_secondsf                =   5.0976000000000E+06
(PID.TID 0000.0001) %MON dynstat_eta_max              =   8.1540660020954E-01
(PID.TID 0000.0001) %MON dynstat_eta_min              =  -1.4772618130361E+00
(PID.TID 0000.0001) %MON dynstat_eta_mean             =   9.3110375150873E-17
(PID.TID 0000.0001) %MON dynstat_eta_sd               =   4.8917727820395E-01
(PID.TID 0000.0001) %MON dynstat_eta_del2             =   1.8874642144739E-02
(PID.TID 0000.0001) %MON dynstat_uvel_max             =   1.9577512363149E-01
(PID.TID 0000.0001) %MON dynstat_uvel_min             =  -1.3621416290175E-01
(PID.TID 0000.0001) %MON dynstat_uvel_mean            =   9.5065542661570E-04
(PID.TID 0000.0001) %MON dynstat_uvel_sd              =   1.6663467418412E-02
(PID.TID 0000.0001) %MON dynstat_uvel_del2            =   4.5432993164250E-03
(PID.TID 0000.0001) %MON dynstat_vvel_max             =   1.7164700459019E-01
(PID.TID 0000.0001) %MON dynstat_vvel_min             =  -1.4461775986630E-01
(PID.TID 0000.0001) %MON dynstat_vvel_mean            =   1.6819596604322E-03
(PID.TID 0000.0001) %MON dynstat_vvel_sd              =   1.4252134667216E-02
(PID.TID 0000.0001) %MON dynstat_vvel_del2            =   4.1127143325145E-03
(PID.TID 0000.0001) %MON dynstat_wvel_max             =   2.9338095390139E-04
(PID.TID 0000.0001) %MON dynstat_wvel_min             =  -1.7576823229548E-04
(PID.TID 0000.0001) %MON dynstat_wvel_mean            =  -1.5161541218901E-23
(PID.TID 0000.0001) %MON dynstat_wvel_sd              =   1.9052934438345E-05
(PID.TID 0000.0001) %MON dynstat_wvel_del2            =   7.2075959906828E-06
(PID.TID 0000.0001) %MON dynstat_theta_max            =   2.9891205932094E+01
(PID.TID 0000.0001) %MON dynstat_theta_min            =  -1.9327922797656E+00
(PID.TID 0000.0001) %MON dynstat_theta_mean           =   3.5887164475410E+00
(PID.TID 0000.0001) %MON dynstat_theta_sd             =   4.3352456558430E+00
(PID.TID 0000.0001) %MON dynstat_theta_del2           =   1.2694483151290E-01
(PID.TID 0000.0001) %MON dynstat_salt_max             =   3.7380740428557E+01
(PID.TID 0000.0001) %MON dynstat_salt_min             =   2.9696933332188E+01
(PID.TID 0000.0001) %MON dynstat_salt_mean            =   3.4716053281571E+01
(PID.TID 0000.0001) %MON dynstat_salt_sd              =   2.9287807523979E-01
(PID.TID 0000.0001) %MON dynstat_salt_del2            =   2.2388800818298E-02
(PID.TID 0000.0001) %MON advcfl_uvel_max              =   3.2355325790975E-02
(PID.TID 0000.0001) %MON advcfl_vvel_max              =   1.6674130052444E-02
(PID.TID 0000.0001) %MON advcfl_wvel_max              =   6.5730586844982E-02
(PID.TID 0000.0001) %MON advcfl_W_hf_max              =   7.3827178634902E-02
(PID.TID 0000.0001) %MON pe_b_mean                    =   3.0620603980193E-04
(PID.TID 0000.0001) %MON ke_max                       =   2.1012067378611E-02
(PID.TID 0000.0001) %MON ke_mean                      =   2.1902181938519E-04
(PID.TID 0000.0001) %MON ke_vol                       =   1.3226782436723E+18
(PID.TID 0000.0001) %MON vort_r_min                   =  -8.2996805468615E-07
(PID.TID 0000.0001) %MON vort_r_max                   =   6.0761107475498E-07
(PID.TID 0000.0001) %MON vort_a_mean                  =  -2.5205769024235E-05
(PID.TID 0000.0001) %MON vort_a_sd                    =   7.3403415295091E-05
(PID.TID 0000.0001) %MON vort_p_mean                  =  -3.1758669092281E-05
(PID.TID 0000.0001) %MON vort_p_sd                    =   1.3126095918146E-04
(PID.TID 0000.0001) %MON surfExpan_theta_mean         =   1.6181943381754E-06
(PID.TID 0000.0001) %MON surfExpan_salt_mean          =  -5.3714493206322E-07
(PID.TID 0000.0001) // =======================================================
(PID.TID 0000.0001) // End MONITOR dynamic field statistics
(PID.TID 0000.0001) // =======================================================
time,SST,SSS,fu,fv,Q,E-P,i0,i1,a,b =   5.0976E+06 -3.6948E-01  3.4495E+01 -2.0391E-02 -9.6754E-03  2.2877E+02  0.0000E+00     2     3  4.6667E-01  5.3333E-01
time,fu0,fu1,fu =   5.0976E+06 -1.4435E-02 -2.7199E-02 -2.0391E-02  4.6667E-01  5.3333E-01
 cg2d: Sum(rhs),rhsMax =   5.06622521712075E-13  7.12293530003999E+00
(PID.TID 0000.0001)                    cg2d_init_res =    2.78011812332448E-01
(PID.TID 0000.0001)                       cg2d_iters =    24
(PID.TID 0000.0001)                         cg2d_res =    5.51215681947352E-14
(PID.TID 0000.0001) // =======================================================
(PID.TID 0000.0001) // Begin MONITOR dynamic field statistics
(PID.TID 0000.0001) // =======================================================
(PID.TID 0000.0001) %MON time_tsnumber                =                   119
(PID.TID 0000.0001) %MON time_secondsf                =   5.1408000000000E+06
(PID.TID 0000.0001) %MON dynstat_eta_max              =   8.1227310410697E-01
(PID.TID 0000.0001) %MON dynstat_eta_min              =  -1.4805295763487E+00
(PID.TID 0000.0001) %MON dynstat_eta_mean             =   6.1643103753995E-18
(PID.TID 0000.0001) %MON dynstat_eta_sd               =   4.9026491515856E-01
(PID.TID 0000.0001) %MON dynstat_eta_del2             =   1.8903267055457E-02
(PID.TID 0000.0001) %MON dynstat_uvel_max             =   1.9231123966582E-01
(PID.TID 0000.0001) %MON dynstat_uvel_min             =  -1.3619054710092E-01
(PID.TID 0000.0001) %MON dynstat_uvel_mean            =   9.5483021210900E-04
(PID.TID 0000.0001) %MON dynstat_uvel_sd              =   1.6687087670030E-02
(PID.TID 0000.0001) %MON dynstat_uvel_del2            =   4.5289514239319E-03
(PID.TID 0000.0001) %MON dynstat_vvel_max             =   1.7175252235505E-01
(PID.TID 0000.0001) %MON dynstat_vvel_min             =  -1.4463308500968E-01
(PID.TID 0000.0001) %MON dynstat_vvel_mean            =   1.6736650711884E-03
(PID.TID 0000.0001) %MON dynstat_vvel_sd              =   1.4225749625116E-02
(PID.TID 0000.0001) %MON dynstat_vvel_del2            =   4.1027794245208E-03
(PID.TID 0000.0001) %MON dynstat_wvel_max             =   2.8837659806980E-04
(PID.TID 0000.0001) %MON dynstat_wvel_min             =  -1.7589640756797E-04
(PID.TID 0000.0001) %MON dynstat_wvel_mean            =  -4.9254208375479E-23
(PID.TID 0000.0001) %MON dynstat_wvel_sd              =   1.8937544297709E-05
(PID.TID 0000.0001) %MON dynstat_wvel_del2            =   7.1634961212735E-06
(PID.TID 0000.0001) %MON dynstat_theta_max            =   2.9891307656584E+01
(PID.TID 0000.0001) %MON dynstat_theta_min            =  -1.9305193640036E+00
(PID.TID 0000.0001) %MON dynstat_theta_mean           =   3.5887344155155E+00
(PID.TID 0000.0001) %MON dynstat_theta_sd             =   4.3353775599608E+00
(PID.TID 0000.0001) %MON dynstat_theta_del2           =   1.2694097848950E-01
(PID.TID 0000.0001) %MON dynstat_salt_max             =   3.7380293705282E+01
(PID.TID 0000.0001) %MON dynstat_salt_min             =   2.9695847708513E+01
(PID.TID 0000.0001) %MON dynstat_salt_mean            =   3.4716059654842E+01
(PID.TID 0000.0001) %MON dynstat_salt_sd              =   2.9284364935876E-01
(PID.TID 0000.0001) %MON dynstat_salt_del2            =   2.2391781508024E-02
(PID.TID 0000.0001) %MON advcfl_uvel_max              =   3.1782857276424E-02
(PID.TID 0000.0001) %MON advcfl_vvel_max              =   1.6684380257150E-02
(PID.TID 0000.0001) %MON advcfl_wvel_max              =   6.2863129938776E-02
(PID.TID 0000.0001) %MON advcfl_W_hf_max              =   7.0939231025595E-02
(PID.TID 0000.0001) %MON pe_b_mean                    =   3.0756919079532E-04
(PID.TID 0000.0001) %MON ke_max                       =   2.0665391394673E-02
(PID.TID 0000.0001) %MON ke_mean                      =   2.1903349183980E-04
(PID.TID 0000.0001) %MON ke_vol                       =   1.3226782436723E+18
(PID.TID 0000.0001) %MON vort_r_min                   =  -8.2672939430340E-07
(PID.TID 0000.0001) %MON vort_r_max                   =   5.9806085112318E-07
(PID.TID 0000.0001) %MON vort_a_mean                  =  -2.5205769049284E-05
(PID.TID 0000.0001) %MON vort_a_sd                    =   7.3403414671837E-05
(PID.TID 0000.0001) %MON vort_p_mean                  =  -3.1758669123842E-05
(PID.TID 0000.0001) %MON vort_p_sd                    =   1.3126092983421E-04
(PID.TID 0000.0001) %MON surfExpan_theta_mean         =   1.6172751940088E-06
(PID.TID 0000.0001) %MON surfExpan_salt_mean          =  -5.6282611270590E-07
(PID.TID 0000.0001) // =======================================================
(PID.TID 0000.0001) // End MONITOR dynamic field statistics
(PID.TID 0000.0001) // =======================================================
time,SST,SSS,fu,fv,Q,E-P,i0,i1,a,b =   5.1408E+06 -3.6368E-01  3.4497E+01 -2.0604E-02 -9.3911E-03  2.2836E+02  0.0000E+00     2     3  4.8333E-01  5.1667E-01
time,fu0,fu1,fu =   5.1408E+06 -1.4435E-02 -2.7199E-02 -2.0604E-02  4.8333E-01  5.1667E-01
 cg2d: Sum(rhs),rhsMax =  -4.41313652288500E-13  7.07410852649000E+00
(PID.TID 0000.0001)                    cg2d_init_res =    2.72257113579127E-01
(PID.TID 0000.0001)                       cg2d_iters =    24
(PID.TID 0000.0001)                         cg2d_res =    5.74793879366627E-14
(PID.TID 0000.0001) // =======================================================
(PID.TID 0000.0001) // Begin MONITOR dynamic field statistics
(PID.TID 0000.0001) // =======================================================
(PID.TID 0000.0001) %MON time_tsnumber                =                   120
(PID.TID 0000.0001) %MON time_secondsf                =   5.1840000000000E+06
(PID.TID 0000.0001) %MON dynstat_eta_max              =   8.0705034171273E-01
(PID.TID 0000.0001) %MON dynstat_eta_min              =  -1.4838864057410E+00
(PID.TID 0000.0001) %MON dynstat_eta_mean             =  -2.8952568203862E-16
(PID.TID 0000.0001) %MON dynstat_eta_sd               =   4.9132047156432E-01
(PID.TID 0000.0001) %MON dynstat_eta_del2             =   1.8916860955597E-02
(PID.TID 0000.0001) %MON dynstat_uvel_max             =   1.8830940408236E-01
(PID.TID 0000.0001) %MON dynstat_uvel_min             =  -1.3611341195105E-01
(PID.TID 0000.0001) %MON dynstat_uvel_mean            =   9.5732619584430E-04
(PID.TID 0000.0001) %MON dynstat_uvel_sd              =   1.6706562957456E-02
(PID.TID 0000.0001) %MON dynstat_uvel_del2            =   4.5159277017339E-03
(PID.TID 0000.0001) %MON dynstat_vvel_max             =   1.7171394325864E-01
(PID.TID 0000.0001) %MON dynstat_vvel_min             =  -1.4451274751087E-01
(PID.TID 0000.0001) %MON dynstat_vvel_mean            =   1.6608737992121E-03
(PID.TID 0000.0001) %MON dynstat_vvel_sd              =   1.4191760798917E-02
(PID.TID 0000.0001) %MON dynstat_vvel_del2            =   4.0926548364858E-03
(PID.TID 0000.0001) %MON dynstat_wvel_max             =   2.8347836351900E-04
(PID.TID 0000.0001) %MON dynstat_wvel_min             =  -1.7569161764369E-04
(PID.TID 0000.0001) %MON dynstat_wvel_mean            =   6.7519555687485E-22
(PID.TID 0000.0001) %MON dynstat_wvel_sd              =   1.8819503685137E-05
(PID.TID 0000.0001) %MON dynstat_wvel_del2            =   7.1188256823752E-06
(PID.TID 0000.0001) %MON dynstat_theta_max            =   2.9890676187918E+01
(PID.TID 0000.0001) %MON dynstat_theta_min            =  -1.9280847413706E+00
(PID.TID 0000.0001) %MON dynstat_theta_mean           =   3.5887509341129E+00
(PID.TID 0000.0001) %MON dynstat_theta_sd             =   4.3355060135756E+00
(PID.TID 0000.0001) %MON dynstat_theta_del2           =   1.2680418222572E-01
(PID.TID 0000.0001) %MON dynstat_salt_max             =   3.7379850212266E+01
(PID.TID 0000.0001) %MON dynstat_salt_min             =   2.9694797133340E+01
(PID.TID 0000.0001) %MON dynstat_salt_mean            =   3.4716066179487E+01
(PID.TID 0000.0001) %MON dynstat_salt_sd              =   2.9281351579140E-01
(PID.TID 0000.0001) %MON dynstat_salt_del2            =   2.2367609778980E-02
(PID.TID 0000.0001) %MON advcfl_uvel_max              =   3.1121482676511E-02
(PID.TID 0000.0001) %MON advcfl_vvel_max              =   1.6680632607301E-02
(PID.TID 0000.0001) %MON advcfl_wvel_max              =   5.8901012919372E-02
(PID.TID 0000.0001) %MON advcfl_W_hf_max              =   6.6959928880449E-02
(PID.TID 0000.0001) %MON pe_b_mean                    =   3.0889502961300E-04
(PID.TID 0000.0001) %MON ke_max                       =   2.0205526704715E-02
(PID.TID 0000.0001) %MON ke_mean                      =   2.1887835072971E-04
(PID.TID 0000.0001) %MON ke_vol                       =   1.3226782436723E+18
(PID.TID 0000.0001) %MON vort_r_min                   =  -8.2301620547630E-07
(PID.TID 0000.0001) %MON vort_r_max                   =   5.8725915940971E-07
(PID.TID 0000.0001) %MON vort_a_mean                  =  -2.5205769072562E-05
(PID.TID 0000.0001) %MON vort_a_sd                    =   7.3403413610614E-05
(PID.TID 0000.0001) %MON vort_p_mean                  =  -3.1758669153173E-05
(PID.TID 0000.0001) %MON vort_p_sd                    =   1.3126090316857E-04
(PID.TID 0000.0001) %MON surfExpan_theta_mean         =   1.6769022551941E-06
(PID.TID 0000.0001) %MON surfExpan_salt_mean          =  -5.8081090072930E-07
(PID.TID 0000.0001) // =======================================================
(PID.TID 0000.0001) // End MONITOR dynamic field statistics
(PID.TID 0000.0001) // =======================================================
  --> objf_test(bi,bj)   =  0.
  --> objf_tracer(bi,bj) =  0.
  --> objf_atl(bi,bj)    = -0.135436448
  local fc =  -0.135436448
  global fc =  -0.135436448
(PID.TID 0000.0001)  MDSREADFIELD: opening file: xx_theta.0000000000.001.001.data
 grad-res -------------------------------
 grad-res     0    1   43    2    1   -.135436441E+00 -.135436433E+00 -.135436448E+00
 grad-res     0    1    1    1    0   0.756565540E-06 0.756572788E-06 -.957974629E-05
(PID.TID 0000.0001)       precision_grdchk_result ADM    -1.35436440816734E-01     7.56565540046391E-07
 ph-grd  ierr ---------------------------
 ph-grd  ierr =  0, icomp =  1, ichknum =  1
(PID.TID 0000.0001)  MDSREADFIELD: opening file: adxx_theta.0000000000.001.001.data
(PID.TID 0000.0001)  MDSREADFIELD: opening file: xx_theta.0000000000.001.001.data
(PID.TID 0000.0001) %MON surfExpanfCori_max           =   1.4226580169407E-04
(PID.TID 0000.0001) %MON surfExpanfCori_min           =  -1.4226580169407E-04
(PID.TID 0000.0001) %MON surfExpanfCori_mean          =   7.5291817533716E-23
(PID.TID 0000.0001) %MON surfExpanfCori_sd            =   9.6335367303778E-05
(PID.TID 0000.0001) %MON surfExpanfCoriG_max          =   1.4112379284621E-04
(PID.TID 0000.0001) %MON surfExpanfCoriG_min          =  -1.4323448157692E-04
(PID.TID 0000.0001) %MON surfExpanfCoriG_mean         =  -3.6726790147928E-06
(PID.TID 0000.0001) %MON surfExpanfCoriG_sd           =   9.7510077443652E-05
(PID.TID 0000.0001) %MON surfExpanfCoriCos_max        =   1.4535550371427E-04
(PID.TID 0000.0001) %MON surfExpanfCoriCos_min        =   3.0239529651320E-05
(PID.TID 0000.0001) %MON surfExpanfCoriCos_mean       =   1.0260497651149E-04
(PID.TID 0000.0001) %MON surfExpanfCoriCos_sd         =   3.6683828681187E-05
(PID.TID 0000.0001) // CG2D normalisation factor =          0.6568267742571170272718184E-04
(PID.TID 0000.0001) 
(PID.TID 0000.0001)  MDSREADFIELD: opening global file: lev_t.bin
(PID.TID 0000.0001) // =======================================================
(PID.TID 0000.0001) // Field Initial Temperature at iteration          1
(PID.TID 0000.0001) // CMIN =         -1.900000000000000E+00
(PID.TID 0000.0001) // CMAX =          2.973338890075684E+01
(PID.TID 0000.0001) // CINT =          1.171606996324327E+00
(PID.TID 0000.0001) // SYMBOLS (CMIN->CMAX): -abcdefghijklmnopqrstuvwxyz+
(PID.TID 0000.0001) //                  0.0: .
(PID.TID 0000.0001) // RANGE I (Lo:Hi:Step):(   1:  90:   1)
(PID.TID 0000.0001) // RANGE J (Lo:Hi:Step):(  40:   1:  -1)
(PID.TID 0000.0001) // RANGE K (Lo:Hi:Step):(   1:   1:   1)
(PID.TID 0000.0001) // =======================================================
(PID.TID 0000.0001) K =   1
(PID.TID 0000.0001)                I=10      I=20      I=30      I=40      I=50      I=60      I=70      I=80      I=90
(PID.TID 0000.0001) |--J--|123456789|123456789|123456789|123456789|123456789|123456789|123456789|123456789|123456789|
(PID.TID 0000.0001)     40 bccdd.baa----abdedd..................................................................bbbbb
(PID.TID 0000.0001)     39 ccdddddccbbbaa...ed.....................................................----........bbbbbb
(PID.TID 0000.0001)     38 fffgfedeedddc...........................................................-----......cbbbcde
(PID.TID 0000.0001)     37 ghh..................................................................bc...bbc...edeed.defg
(PID.TID 0000.0001)     36 hh.........................................ddcb....................dcccbabccdd.eefghhihhih
(PID.TID 0000.0001)     35 hh.................................aaab..dddeddd...ffggg...........ccc....ddeeeffghijjjjih
(PID.TID 0000.0001)     34 ...................................babb.deeeeeee.ffffgghh..................ccdffghijkkkj..
(PID.TID 0000.0001)     33 ....................................accdddeeeeefffffgghhiii.................bcfijkkllllkk.
(PID.TID 0000.0001)     32 ....................................bdddeffgffgghhhhhiiijjj................dccglmnmmmmlll.
(PID.TID 0000.0001)     31 ....................................fghiiiijjjjjjkkkkklllkk..............ikkjjmooooonnmm..
(PID.TID 0000.0001)     30 ...................................mmmnmmmmmmmmmmmmmnnnnnmm............moqrrrqrqqqpppooo..
(PID.TID 0000.0001)     29 .................................pqqqqqpppppppppoppoppppponm...........ssssssrrrrrqqqqpp..
(PID.TID 0000.0001)     28 ...............................prssssrrrsssrrrrrrrrrrrrrqqpoo.........uttssstssrssrrrqqq..
(PID.TID 0000.0001)     27 ..............vv..............stuttuuuuutuuuuuuuuuuttttssrrqqq...stuu.vvvuuuuutttttsss....
(PID.TID 0000.0001)     26 ..............vvv...........uuvvvvvwwwwwwwwvvvvvvvvvuuutttsssttv.uuvxxwwwwwwvvvvuuttsr....
(PID.TID 0000.0001)     25 ..............wwwx...xxx...vvvxxxxxyyxxxxxxxxxwwwwwvvvvvuuuuuvwwx...xxxxxxwwwwwwvvutsr....
(PID.TID 0000.0001)     24 ............wwwwxyy.xxyy...wxx.yyyyyyyyyyyxxxxxxxxwwwwwwwvvwwxxyywww.xxxxxxxxxxwwwvvur....
(PID.TID 0000.0001)     23 ............xxxyyyz.xyyy...xxx..yyyyzzyyyyyyyyxxxxxxxxxwwwwwxxxwwwwwx....vwxxxxwwwwwvu....
(PID.TID 0000.0001)     22 w...........xxyyyzyyyyyz...xx.yyzzzzzzzzzzzzzyyzyyyyyyxxwwxxxxwvvvwwxw......yyyyxxxxxxwxxw
(PID.TID 0000.0001)     21 xxx........xxxxyyzzzzzzz+.....zyzzzzzzz++zzzzyyyyyyyyxxwvvwwwwvvvvvvvu........yyyyyyyyyxxx
(PID.TID 0000.0001)     20 xww.......xyyyyxyyzzzzzz+......z.zzzzz+++zzzzzzyyyyyxxxxwvwxwvuuuuuuut.........yyyyxxxxwww
(PID.TID 0000.0001)     19 vvv.......yyyyxwwxyzyyzzzzz...zzz.....++++++z++z+zzzyyyyxxxxwwvvvvvvvu...........yyxxxwwww
(PID.TID 0000.0001)     18 uut.......zzyyywwxyzyyyyzzyzzzzzz...z+z++++zz+++++++zzzyyyyxxwwwvvvvvtt..........yyxxwvvwv
(PID.TID 0000.0001)     17 uus.......z.yyyyyyxyzzyyyyyyyzz.....yzzzzzzzzzzzzzzzzzzyyyyxxwwvuuvvuut.........yyyxxwttvu
(PID.TID 0000.0001)     16 utr......yy.zyyyyxxxxxxxwxxxxy.......yyyyyyyyyyyyyyyyyyyyyyyxxwvvvuuutts........xyyyxwvuuu
(PID.TID 0000.0001)     15 ttrr....xxx.xxxwxwwwwvwwvvvww.........xwxxxxxxxxxxxxxxxxxyyyxwwwvvuttssrr......wxxxxxwwvuu
(PID.TID 0000.0001)     14 ttsq....xyxwwxwvwwwvutuuuuuuu.........wwvwwwwvwvvwwwvwvvwwwwwwvvvuuutssrr.....vwwwwwwwvvvu
(PID.TID 0000.0001)     13 tttr....wwwvvvtttuuuutttssttt.........vvvuuuuuuutttttuuuuuvwwwuuuttttssrr....uvvvvvvvvvvut
(PID.TID 0000.0001)     12 sssssstttutssssrrrrrstrqqrrssqqrrq....uuttssssrrrrrrrrrrrstttssssrssrrqp.....uuuttssttssss
(PID.TID 0000.0001)     11 poprsssrqqqqqrqppooopqpoppppppppppp..sssrrr.rqpppqqqqppppqqqoppqqqqrqqpp....prsrqqqqqppppq
(PID.TID 0000.0001)     10 lllmoooonmnnmnnnnmmmmmmlmmlllmnnnnon.qqqppp.ppppppooooooooonmnnnonnooooo..nmoponnmnnnnnmll
(PID.TID 0000.0001)      9 ihhiiiihhhhhhiiihiiiiihhhiiiijjkkmnllnnnnn.mmmmnnnnmmmmnnmmlklllllklllll.mllmmllkjiijjihhi
(PID.TID 0000.0001)      8 eeeeeeeedefgggffeeffggffffggghiiiijjijklklkkkkkkkklllkkkkjjiiijkjjjjjjkj.kkjjiihggffffedde
(PID.TID 0000.0001)      7 cccccddeedddefeddddddddddefeefffffgggghiiiiiijjjihhgggghhhhhghhhhhhhiiiihiihhgfeddddddcccc
(PID.TID 0000.0001)      6 abbcccddcccccdddddccdddddddccddddddeeeeffggggghhgeddddddeeeeeeefggggghggggffeedccbbbbbbbba
(PID.TID 0000.0001)      5 bbbcccccccccccccccccccccbbccccdddddddcccddeeddeedcbbbbbbccccccdddeeeeeddddddccbbbbaaaaaaab
(PID.TID 0000.0001)      4 bbbbbbbaaabbbbbbbbbbbbaabbabbbbcbbbbbbbbbbbbbbbbbbbabbaaabbbbbbbbbbbbbbbbb..a--aaabbbaaabb
(PID.TID 0000.0001)      3 bbbbaaa-a-............................bbaaaaaaaaaaaaaaaaaaaaaaaaaaaaaaaab..aaaaaaaabbbaaaa
(PID.TID 0000.0001)      2 ..........................................baaaaaaaaaaaa-------aa..aaaa.....aaaaaaaaaaaa...
(PID.TID 0000.0001)      1 ..........................................................................................
(PID.TID 0000.0001) // =======================================================
(PID.TID 0000.0001) // END OF FIELD                                          =
(PID.TID 0000.0001) // =======================================================
(PID.TID 0000.0001) 
(PID.TID 0000.0001)  MDSREADFIELD: opening global file: lev_s.bin
(PID.TID 0000.0001) // =======================================================
(PID.TID 0000.0001) // Field Initial Salinity at iteration          1
(PID.TID 0000.0001) // CMIN =          2.975276947021484E+01
(PID.TID 0000.0001) // CMAX =          3.747562789916992E+01
(PID.TID 0000.0001) // CINT =          2.860317936650029E-01
(PID.TID 0000.0001) // SYMBOLS (CMIN->CMAX): -abcdefghijklmnopqrstuvwxyz+
(PID.TID 0000.0001) //                  0.0: .
(PID.TID 0000.0001) // RANGE I (Lo:Hi:Step):(   1:  90:   1)
(PID.TID 0000.0001) // RANGE J (Lo:Hi:Step):(  40:   1:  -1)
(PID.TID 0000.0001) // RANGE K (Lo:Hi:Step):(   1:   1:   1)
(PID.TID 0000.0001) // =======================================================
(PID.TID 0000.0001) K =   1
(PID.TID 0000.0001)                I=10      I=20      I=30      I=40      I=50      I=60      I=70      I=80      I=90
(PID.TID 0000.0001) |--J--|123456789|123456789|123456789|123456789|123456789|123456789|123456789|123456789|123456789|
(PID.TID 0000.0001)     40 qrrrr.oonnooopqtutt..................................................................mnnop
(PID.TID 0000.0001)     39 rssrrrrrrrqqpn...ut.....................................................mmmm........opqqqr
(PID.TID 0000.0001)     38 ssrrqqqqrrqpo...........................................................lkkll......onoqrrs
(PID.TID 0000.0001)     37 ssr..................................................................hg...lln...qppqr.rrrs
(PID.TID 0000.0001)     36 rr.........................................lkji....................feeegikmoop.pqrssssssss
(PID.TID 0000.0001)     35 rr.................................kkkk..lllllki...jijjj...........aa-....opqrrrrrrrssttss
(PID.TID 0000.0001)     34 ...................................jlll.kklllllk.ijkkkjih..................hlpqrqrrsstts..
(PID.TID 0000.0001)     33 ....................................iklkkkkkkkkkjkkjjjjjjii.................jmprrsstttttt.
(PID.TID 0000.0001)     32 ....................................iklllkllllllllkkkkkkkji................gilpstuuttuuut.
(PID.TID 0000.0001)     31 ....................................lmnonnnnoooonnmmmmllkjj..............loopqtvvvuuuuuu..
(PID.TID 0000.0001)     30 ...................................pppppppqqqqpppoooonnmlkk............ptvxwwvvwvvvvvvvu..
(PID.TID 0000.0001)     29 .................................pqqrqqqqqqrrrqqppqqqpponmll...........vxxxxxxwwwwwxwwxw..
(PID.TID 0000.0001)     28 ...............................prrrrrqqrrrrrsrrsrssssssrqonmm.........wxxxxxxxyyyyyyyyxx..
(PID.TID 0000.0001)     27 ..............xx..............prrrrrrrrrssssssstttssssssrqpoop...uwww.wwxxxyyy++zzzzyy....
(PID.TID 0000.0001)     26 ..............wxx...........ppqrrrrrrsssrrstsstttssrrrrrrrqppqqp.wwwvvwwwwwxyy+++zzyxw....
(PID.TID 0000.0001)     25 ..............wxxv...kkk...ooopqrrrrrssrrrrrrrssssqqpppppppppppoo...vvutuuvvwxyyyxxvvu....
(PID.TID 0000.0001)     24 ............uvvwwur.lmlk...nmm.pqqqqrrrrrqqqqrrqqrpppppooooonmmmnooo.uuuuuuttuvvvuvuut....
(PID.TID 0000.0001)     23 ............vvuvtqp.lmml...mln..ppppqpqppppppqpppppppppqppponnnnnoopm....xvuuuvvvvuuut....
(PID.TID 0000.0001)     22 r...........vuttsqqpnppn...mm.oppqqrrqqqqqqppppqqrrrqqqrrppppoopooomjj......uuvvvvvuttssrr
(PID.TID 0000.0001)     21 qmm........ttsssssssrsqon.....opqqqqqqqrrrrqqqssssssrrrrrrrrpqqqppomll........tvvvvuttssrr
(PID.TID 0000.0001)     20 sqq.......sttssrrsrrrrpol......p.qrqpqrrrrrrrstttttsssrrsssrqrrrrqqqpo.........wwwvvvuuutt
(PID.TID 0000.0001)     19 tsr.......ssssrrrrpppppnmmm...oqq.....qrqqsrrstttuuuttssttssrrssrrrrqq...........wwwvuvvvv
(PID.TID 0000.0001)     18 wut.......ssrrrrrqppppppppoooorrr...poqqqprrrttttuuutuuuuuutttttttutsss..........yyxwwxwxx
(PID.TID 0000.0001)     17 wwu.......s.rrrrrrqppppqqqqqqqr.....rrsrqrsssuusrtuuuvvvwwvvvuuuuutttss.........xyzyyyyxxx
(PID.TID 0000.0001)     16 vvt......ss.qrrssrqrqpqrrrrrrr.......ssrrstsstusrsuuuvwwwwxxwwvvvuttttsr........yz+zzzxwww
(PID.TID 0000.0001)     15 utss....stt.rrssstttsrrsrstsr.........ssstttssttsuuttuvvvvwxwwwwwuttsssrr......xyyyyxyyxwv
(PID.TID 0000.0001)     14 utts....sstrrssstuuuuuuuuuutt.........stttuutttttttuttttttuvvvvvvutsrqrrr.....vxxwwwwxwvwv
(PID.TID 0000.0001)     13 uuut....ttttttttuuuuuvtuuuuuu.........ttttuutttttttuutsssstttttstsqrqqppp....uwwwvuvvvutvv
(PID.TID 0000.0001)     12 ttttttttttttttttttttttssuuuuutuuut....tttttttttttsssssrrrrrrrqqqqqppppoo.....rvvuuttttttuu
(PID.TID 0000.0001)     11 rqsttttttttuuttttsssssrrstttttttsss..ttttts.tsssrrrrqqqqqppppoonnooooooo....oruttttsssrqrs
(PID.TID 0000.0001)     10 pppqrssrqqrqpqrssrrqqqqqqrrrrrrrrrrs.sssssr.rssrrqqpppppppooooonnnoooonn..moqrrrqqqqqqqqqq
(PID.TID 0000.0001)      9 oonooooooooonnnooooooooooppppppqqqqqrrrqrq.pppqqqqqppppppppppoooooooooll.lmoqqqqppooooopoo
(PID.TID 0000.0001)      8 nnnoonooooooonnnnnnnoooonoonoooppopqqqqqqqppopppqqqpppppppppppppppooopon.lnopppoooonnnnooo
(PID.TID 0000.0001)      7 ooooooooooopponnnooooooonnnnnonnooooooooopppppppoooooooooopppppppppoopqnnmnoooonnnonnnnnno
(PID.TID 0000.0001)      6 oooonnoonnnnooooooooooooonnnnnnnnnnnnnnnnoooopppooooooooooooooppppppppppoooooooonnnnnmnnnn
(PID.TID 0000.0001)      5 oooonnnnnnnnnnnnnnnnnoooooonnnnnnonnnnnnnnnoooooooooooonnnnnnooooooopoooonoooonnnnnnnooooo
(PID.TID 0000.0001)      4 oooonnnooonnnnnnnnnnnnnnoooooonnnooooonnnooooooooppponnnnmmmnnnnmnnoonnnnn..nnnooooooooooo
(PID.TID 0000.0001)      3 ooonnnnnnn............................nnoooooonnooooonnnnnnnoonnnnnnnnmmm..ooopooooooooooo
(PID.TID 0000.0001)      2 ..........................................pppooooonnnnnnoooppppo..nnnn.....qqqpppoooooo...
(PID.TID 0000.0001)      1 ..........................................................................................
(PID.TID 0000.0001) // =======================================================
(PID.TID 0000.0001) // END OF FIELD                                          =
(PID.TID 0000.0001) // =======================================================
(PID.TID 0000.0001) 
(PID.TID 0000.0001) Start initial hydrostatic pressure computation
(PID.TID 0000.0001) Pressure is predetermined for buoyancyRelation OCEANIC
(PID.TID 0000.0001) 
(PID.TID 0000.0001)  MDSREADFIELD: opening file: xx_theta.0000000000.001.001.data
(PID.TID 0000.0001)  MDSREADFIELD: opening file: xx_salt.0000000000.001.001.data
(PID.TID 0000.0001)  MDSREADFIELD: opening file: xx_diffkr.0000000000.001.001.data
(PID.TID 0000.0001)  MDSREADFIELD: opening global file: trenberth_taux.bin
(PID.TID 0000.0001)  MDSREADFIELD: opening global file: trenberth_tauy.bin
(PID.TID 0000.0001)  MDSREADFIELD: opening global file: ncep_qnet.bin
(PID.TID 0000.0001)  MDSREADFIELD: opening global file: lev_sst.bin
(PID.TID 0000.0001)  MDSREADFIELD: opening global file: lev_sss.bin
(PID.TID 0000.0001) // =======================================================
(PID.TID 0000.0001) // Model current state
(PID.TID 0000.0001) // =======================================================
(PID.TID 0000.0001) 
(PID.TID 0000.0001) // =======================================================
(PID.TID 0000.0001) // Begin MONITOR dynamic field statistics
(PID.TID 0000.0001) // =======================================================
(PID.TID 0000.0001) %MON time_tsnumber                =                     0
(PID.TID 0000.0001) %MON time_secondsf                =   0.0000000000000E+00
(PID.TID 0000.0001) %MON dynstat_eta_max              =   0.0000000000000E+00
(PID.TID 0000.0001) %MON dynstat_eta_min              =   0.0000000000000E+00
(PID.TID 0000.0001) %MON dynstat_eta_mean             =   0.0000000000000E+00
(PID.TID 0000.0001) %MON dynstat_eta_sd               =   0.0000000000000E+00
(PID.TID 0000.0001) %MON dynstat_eta_del2             =   0.0000000000000E+00
(PID.TID 0000.0001) %MON dynstat_uvel_max             =   0.0000000000000E+00
(PID.TID 0000.0001) %MON dynstat_uvel_min             =   0.0000000000000E+00
(PID.TID 0000.0001) %MON dynstat_uvel_mean            =   0.0000000000000E+00
(PID.TID 0000.0001) %MON dynstat_uvel_sd              =   0.0000000000000E+00
(PID.TID 0000.0001) %MON dynstat_uvel_del2            =   0.0000000000000E+00
(PID.TID 0000.0001) %MON dynstat_vvel_max             =   0.0000000000000E+00
(PID.TID 0000.0001) %MON dynstat_vvel_min             =   0.0000000000000E+00
(PID.TID 0000.0001) %MON dynstat_vvel_mean            =   0.0000000000000E+00
(PID.TID 0000.0001) %MON dynstat_vvel_sd              =   0.0000000000000E+00
(PID.TID 0000.0001) %MON dynstat_vvel_del2            =   0.0000000000000E+00
(PID.TID 0000.0001) %MON dynstat_wvel_max             =   0.0000000000000E+00
(PID.TID 0000.0001) %MON dynstat_wvel_min             =   0.0000000000000E+00
(PID.TID 0000.0001) %MON dynstat_wvel_mean            =   0.0000000000000E+00
(PID.TID 0000.0001) %MON dynstat_wvel_sd              =   0.0000000000000E+00
(PID.TID 0000.0001) %MON dynstat_wvel_del2            =   0.0000000000000E+00
(PID.TID 0000.0001) %MON dynstat_theta_max            =   2.9733388900757E+01
(PID.TID 0000.0001) %MON dynstat_theta_min            =  -1.9000000000000E+00
(PID.TID 0000.0001) %MON dynstat_theta_mean           =   3.6197074872154E+00
(PID.TID 0000.0001) %MON dynstat_theta_sd             =   4.4174614340742E+00
(PID.TID 0000.0001) %MON dynstat_theta_del2           =   1.5097318825836E-01
(PID.TID 0000.0001) %MON dynstat_salt_max             =   3.7475627899170E+01
(PID.TID 0000.0001) %MON dynstat_salt_min             =   2.9752769470215E+01
(PID.TID 0000.0001) %MON dynstat_salt_mean            =   3.4718006161475E+01
(PID.TID 0000.0001) %MON dynstat_salt_sd              =   2.9628819587990E-01
(PID.TID 0000.0001) %MON dynstat_salt_del2            =   2.6251884861846E-02
(PID.TID 0000.0001) %MON advcfl_uvel_max              =   0.0000000000000E+00
(PID.TID 0000.0001) %MON advcfl_vvel_max              =   0.0000000000000E+00
(PID.TID 0000.0001) %MON advcfl_wvel_max              =   0.0000000000000E+00
(PID.TID 0000.0001) %MON advcfl_W_hf_max              =   0.0000000000000E+00
(PID.TID 0000.0001) %MON pe_b_mean                    =   0.0000000000000E+00
(PID.TID 0000.0001) %MON ke_max                       =   0.0000000000000E+00
(PID.TID 0000.0001) %MON ke_mean                      =   0.0000000000000E+00
(PID.TID 0000.0001) %MON ke_vol                       =   1.3226782436723E+18
(PID.TID 0000.0001) %MON vort_r_min                   =   0.0000000000000E+00
(PID.TID 0000.0001) %MON vort_r_max                   =   0.0000000000000E+00
(PID.TID 0000.0001) %MON vort_a_mean                  =  -2.5205769728595E-05
(PID.TID 0000.0001) %MON vort_a_sd                    =   7.3403301351718E-05
(PID.TID 0000.0001) %MON vort_p_mean                  =  -3.1758669979758E-05
(PID.TID 0000.0001) %MON vort_p_sd                    =   1.3126616755304E-04
(PID.TID 0000.0001) %MON surfExpan_theta_mean         =   0.0000000000000E+00
(PID.TID 0000.0001) %MON surfExpan_salt_mean          =   0.0000000000000E+00
(PID.TID 0000.0001) // =======================================================
(PID.TID 0000.0001) // End MONITOR dynamic field statistics
(PID.TID 0000.0001) // =======================================================
 S/R EXTERNAL_FIELDS_LOAD: Reading new data  0. 0
(PID.TID 0000.0001)  MDSREADFIELD: opening global file: trenberth_taux.bin
(PID.TID 0000.0001)  MDSREADFIELD: opening global file: trenberth_taux.bin
(PID.TID 0000.0001)  MDSREADFIELD: opening global file: trenberth_tauy.bin
(PID.TID 0000.0001)  MDSREADFIELD: opening global file: trenberth_tauy.bin
(PID.TID 0000.0001)  MDSREADFIELD: opening global file: ncep_qnet.bin
(PID.TID 0000.0001)  MDSREADFIELD: opening global file: ncep_qnet.bin
(PID.TID 0000.0001)  MDSREADFIELD: opening global file: lev_sst.bin
(PID.TID 0000.0001)  MDSREADFIELD: opening global file: lev_sst.bin
(PID.TID 0000.0001)  MDSREADFIELD: opening global file: lev_sss.bin
(PID.TID 0000.0001)  MDSREADFIELD: opening global file: lev_sss.bin
time,SST,SSS,fu,fv,Q,E-P,i0,i1,a,b =   0.0000E+00  5.3151E-02  3.4364E+01 -4.0500E-02 -6.3753E-02  2.6510E+02  0.0000E+00    12     1  5.0000E-01  5.0000E-01
time,fu0,fu1,fu =   0.0000E+00 -4.5368E-02 -3.5633E-02 -4.0500E-02  5.0000E-01  5.0000E-01
(PID.TID 0000.0001)  MDSREADFIELD: opening file: xx_tauu.0000000000.001.001.data
(PID.TID 0000.0001)  MDSREADFIELD: opening file: xx_tauv.0000000000.001.001.data
(PID.TID 0000.0001)  MDSREADFIELD: opening file: xx_sflux.0000000000.001.001.data
(PID.TID 0000.0001)  MDSREADFIELD: opening file: xx_hflux.0000000000.001.001.data
 cg2d: Sum(rhs),rhsMax =  -5.55111512312578E-17  2.51126027825716E+00
(PID.TID 0000.0001)                    cg2d_init_res =    6.25921684471315E+00
(PID.TID 0000.0001)                       cg2d_iters =    26
(PID.TID 0000.0001)                         cg2d_res =    4.96600166643699E-14
(PID.TID 0000.0001) // =======================================================
(PID.TID 0000.0001) // Begin MONITOR dynamic field statistics
(PID.TID 0000.0001) // =======================================================
(PID.TID 0000.0001) %MON time_tsnumber                =                     1
(PID.TID 0000.0001) %MON time_secondsf                =   4.3200000000000E+04
(PID.TID 0000.0001) %MON dynstat_eta_max              =   1.7542736336611E-01
(PID.TID 0000.0001) %MON dynstat_eta_min              =  -1.1671969011691E-01
(PID.TID 0000.0001) %MON dynstat_eta_mean             =   1.3213496320164E-18
(PID.TID 0000.0001) %MON dynstat_eta_sd               =   2.6179446657614E-02
(PID.TID 0000.0001) %MON dynstat_eta_del2             =   1.1613848578306E-02
(PID.TID 0000.0001) %MON dynstat_uvel_max             =   8.0529522933638E-03
(PID.TID 0000.0001) %MON dynstat_uvel_min             =  -7.6333376275251E-03
(PID.TID 0000.0001) %MON dynstat_uvel_mean            =  -1.5724927684341E-04
(PID.TID 0000.0001) %MON dynstat_uvel_sd              =   1.2330585536540E-03
(PID.TID 0000.0001) %MON dynstat_uvel_del2            =   4.1962566947465E-04
(PID.TID 0000.0001) %MON dynstat_vvel_max             =   1.8131688034868E-02
(PID.TID 0000.0001) %MON dynstat_vvel_min             =  -1.1104627631651E-02
(PID.TID 0000.0001) %MON dynstat_vvel_mean            =   9.0141406581235E-04
(PID.TID 0000.0001) %MON dynstat_vvel_sd              =   3.3812266131128E-03
(PID.TID 0000.0001) %MON dynstat_vvel_del2            =   5.2106635961539E-04
(PID.TID 0000.0001) %MON dynstat_wvel_max             =   1.5731556153468E-04
(PID.TID 0000.0001) %MON dynstat_wvel_min             =  -1.0461247926497E-04
(PID.TID 0000.0001) %MON dynstat_wvel_mean            =   9.1862219352142E-23
(PID.TID 0000.0001) %MON dynstat_wvel_sd              =   1.6753162003954E-05
(PID.TID 0000.0001) %MON dynstat_wvel_del2            =   8.7872731773535E-06
(PID.TID 0000.0001) %MON dynstat_theta_max            =   2.9714151773427E+01
(PID.TID 0000.0001) %MON dynstat_theta_min            =  -1.9006688327720E+00
(PID.TID 0000.0001) %MON dynstat_theta_mean           =   3.6192176825237E+00
(PID.TID 0000.0001) %MON dynstat_theta_sd             =   4.4160463843583E+00
(PID.TID 0000.0001) %MON dynstat_theta_del2           =   1.5011474990278E-01
(PID.TID 0000.0001) %MON dynstat_salt_max             =   3.7470483222390E+01
(PID.TID 0000.0001) %MON dynstat_salt_min             =   2.9754996047611E+01
(PID.TID 0000.0001) %MON dynstat_salt_mean            =   3.4717966947508E+01
(PID.TID 0000.0001) %MON dynstat_salt_sd              =   2.9615546782282E-01
(PID.TID 0000.0001) %MON dynstat_salt_del2            =   2.6383451184653E-02
(PID.TID 0000.0001) %MON advcfl_uvel_max              =   2.7847836032001E-03
(PID.TID 0000.0001) %MON advcfl_vvel_max              =   1.7613480939301E-03
(PID.TID 0000.0001) %MON advcfl_wvel_max              =   2.5261540324720E-01
(PID.TID 0000.0001) %MON advcfl_W_hf_max              =   2.5633166678463E-01
(PID.TID 0000.0001) %MON pe_b_mean                    =   8.7700511402289E-07
(PID.TID 0000.0001) %MON ke_max                       =   1.2189599970725E-04
(PID.TID 0000.0001) %MON ke_mean                      =   6.1994153199507E-06
(PID.TID 0000.0001) %MON ke_vol                       =   1.3226782436723E+18
(PID.TID 0000.0001) %MON vort_r_min                   =  -6.1330304033393E-08
(PID.TID 0000.0001) %MON vort_r_max                   =   6.1580160380035E-08
(PID.TID 0000.0001) %MON vort_a_mean                  =  -2.5205769360242E-05
(PID.TID 0000.0001) %MON vort_a_sd                    =   7.3403259512183E-05
(PID.TID 0000.0001) %MON vort_p_mean                  =  -3.1758669515642E-05
(PID.TID 0000.0001) %MON vort_p_sd                    =   1.3126622607280E-04
(PID.TID 0000.0001) %MON surfExpan_theta_mean         =   4.5922974721792E-05
(PID.TID 0000.0001) %MON surfExpan_salt_mean          =   3.4898923079130E-06
(PID.TID 0000.0001) // =======================================================
(PID.TID 0000.0001) // End MONITOR dynamic field statistics
(PID.TID 0000.0001) // =======================================================
time,SST,SSS,fu,fv,Q,E-P,i0,i1,a,b =   4.3200E+04  8.3327E-02  3.4375E+01 -4.0338E-02 -6.3536E-02  2.6512E+02  0.0000E+00    12     1  5.1667E-01  4.8333E-01
time,fu0,fu1,fu =   4.3200E+04 -4.5368E-02 -3.5633E-02 -4.0338E-02  5.1667E-01  4.8333E-01
 cg2d: Sum(rhs),rhsMax =   1.91097138113605E-14  4.88048471044202E+00
(PID.TID 0000.0001)                    cg2d_init_res =    3.38567974215245E+00
(PID.TID 0000.0001)                       cg2d_iters =    26
(PID.TID 0000.0001)                         cg2d_res =    3.27664098940169E-14
(PID.TID 0000.0001) // =======================================================
(PID.TID 0000.0001) // Begin MONITOR dynamic field statistics
(PID.TID 0000.0001) // =======================================================
(PID.TID 0000.0001) %MON time_tsnumber                =                     2
(PID.TID 0000.0001) %MON time_secondsf                =   8.6400000000000E+04
(PID.TID 0000.0001) %MON dynstat_eta_max              =   3.6642075205993E-01
(PID.TID 0000.0001) %MON dynstat_eta_min              =  -2.5542812926271E-01
(PID.TID 0000.0001) %MON dynstat_eta_mean             =   1.2160791313428E-17
(PID.TID 0000.0001) %MON dynstat_eta_sd               =   5.9802419815722E-02
(PID.TID 0000.0001) %MON dynstat_eta_del2             =   2.2181093512296E-02
(PID.TID 0000.0001) %MON dynstat_uvel_max             =   1.8742617413914E-02
(PID.TID 0000.0001) %MON dynstat_uvel_min             =  -1.7008757434475E-02
(PID.TID 0000.0001) %MON dynstat_uvel_mean            =  -6.1812265662218E-04
(PID.TID 0000.0001) %MON dynstat_uvel_sd              =   2.0365421684276E-03
(PID.TID 0000.0001) %MON dynstat_uvel_del2            =   7.7147767288148E-04
(PID.TID 0000.0001) %MON dynstat_vvel_max             =   3.3070086702611E-02
(PID.TID 0000.0001) %MON dynstat_vvel_min             =  -1.7823710906559E-02
(PID.TID 0000.0001) %MON dynstat_vvel_mean            =   1.7749222303795E-03
(PID.TID 0000.0001) %MON dynstat_vvel_sd              =   6.2103816477604E-03
(PID.TID 0000.0001) %MON dynstat_vvel_del2            =   9.3438721542176E-04
(PID.TID 0000.0001) %MON dynstat_wvel_max             =   2.0185420699784E-04
(PID.TID 0000.0001) %MON dynstat_wvel_min             =  -1.4619082137608E-04
(PID.TID 0000.0001) %MON dynstat_wvel_mean            =  -6.0770419607503E-22
(PID.TID 0000.0001) %MON dynstat_wvel_sd              =   2.3946387257131E-05
(PID.TID 0000.0001) %MON dynstat_wvel_del2            =   9.7964864565930E-06
(PID.TID 0000.0001) %MON dynstat_theta_max            =   2.9695250203754E+01
(PID.TID 0000.0001) %MON dynstat_theta_min            =  -1.9046704676168E+00
(PID.TID 0000.0001) %MON dynstat_theta_mean           =   3.6180451809339E+00
(PID.TID 0000.0001) %MON dynstat_theta_sd             =   4.4133958407779E+00
(PID.TID 0000.0001) %MON dynstat_theta_del2           =   1.4858801921874E-01
(PID.TID 0000.0001) %MON dynstat_salt_max             =   3.7465922104459E+01
(PID.TID 0000.0001) %MON dynstat_salt_min             =   2.9758319089739E+01
(PID.TID 0000.0001) %MON dynstat_salt_mean            =   3.4717870437877E+01
(PID.TID 0000.0001) %MON dynstat_salt_sd              =   2.9608252734584E-01
(PID.TID 0000.0001) %MON dynstat_salt_del2            =   2.6460099474046E-02
(PID.TID 0000.0001) %MON advcfl_uvel_max              =   5.1989943937369E-03
(PID.TID 0000.0001) %MON advcfl_vvel_max              =   3.2124937329460E-03
(PID.TID 0000.0001) %MON advcfl_wvel_max              =   2.7503047971909E-01
(PID.TID 0000.0001) %MON advcfl_W_hf_max              =   2.8566390214195E-01
(PID.TID 0000.0001) %MON pe_b_mean                    =   4.5763445526447E-06
(PID.TID 0000.0001) %MON ke_max                       =   4.0262905102485E-04
(PID.TID 0000.0001) %MON ke_mean                      =   2.0787429619245E-05
(PID.TID 0000.0001) %MON ke_vol                       =   1.3226782436723E+18
(PID.TID 0000.0001) %MON vort_r_min                   =  -1.0591156951562E-07
(PID.TID 0000.0001) %MON vort_r_max                   =   1.2116719173456E-07
(PID.TID 0000.0001) %MON vort_a_mean                  =  -2.5205769260570E-05
(PID.TID 0000.0001) %MON vort_a_sd                    =   7.3403162844136E-05
(PID.TID 0000.0001) %MON vort_p_mean                  =  -3.1758669390057E-05
(PID.TID 0000.0001) %MON vort_p_sd                    =   1.3126606566337E-04
(PID.TID 0000.0001) %MON surfExpan_theta_mean         =   8.3423161003090E-05
(PID.TID 0000.0001) %MON surfExpan_salt_mean          =   6.6892888601905E-06
(PID.TID 0000.0001) // =======================================================
(PID.TID 0000.0001) // End MONITOR dynamic field statistics
(PID.TID 0000.0001) // =======================================================
time,SST,SSS,fu,fv,Q,E-P,i0,i1,a,b =   8.6400E+04  1.1350E-01  3.4387E+01 -4.0176E-02 -6.3320E-02  2.6514E+02  0.0000E+00    12     1  5.3333E-01  4.6667E-01
time,fu0,fu1,fu =   8.6400E+04 -4.5368E-02 -3.5633E-02 -4.0176E-02  5.3333E-01  4.6667E-01
 cg2d: Sum(rhs),rhsMax =  -1.57443502679655E-14  6.23803641968524E+00
(PID.TID 0000.0001)                    cg2d_init_res =    2.21964832457966E+00
(PID.TID 0000.0001)                       cg2d_iters =    26
(PID.TID 0000.0001)                         cg2d_res =    2.85735456484196E-14
(PID.TID 0000.0001) // =======================================================
(PID.TID 0000.0001) // Begin MONITOR dynamic field statistics
(PID.TID 0000.0001) // =======================================================
(PID.TID 0000.0001) %MON time_tsnumber                =                     3
(PID.TID 0000.0001) %MON time_secondsf                =   1.2960000000000E+05
(PID.TID 0000.0001) %MON dynstat_eta_max              =   5.0447743753974E-01
(PID.TID 0000.0001) %MON dynstat_eta_min              =  -3.8122928155669E-01
(PID.TID 0000.0001) %MON dynstat_eta_mean             =   7.8753163960247E-18
(PID.TID 0000.0001) %MON dynstat_eta_sd               =   9.2514852229579E-02
(PID.TID 0000.0001) %MON dynstat_eta_del2             =   2.7904921784234E-02
(PID.TID 0000.0001) %MON dynstat_uvel_max             =   3.0748714608840E-02
(PID.TID 0000.0001) %MON dynstat_uvel_min             =  -2.9887612427394E-02
(PID.TID 0000.0001) %MON dynstat_uvel_mean            =  -1.2347564253501E-03
(PID.TID 0000.0001) %MON dynstat_uvel_sd              =   2.8304406975510E-03
(PID.TID 0000.0001) %MON dynstat_uvel_del2            =   1.1349443340456E-03
(PID.TID 0000.0001) %MON dynstat_vvel_max             =   4.3827495812688E-02
(PID.TID 0000.0001) %MON dynstat_vvel_min             =  -2.5545918431773E-02
(PID.TID 0000.0001) %MON dynstat_vvel_mean            =   2.5728332726840E-03
(PID.TID 0000.0001) %MON dynstat_vvel_sd              =   8.5401775807570E-03
(PID.TID 0000.0001) %MON dynstat_vvel_del2            =   1.3456992005355E-03
(PID.TID 0000.0001) %MON dynstat_wvel_max             =   1.9966320236139E-04
(PID.TID 0000.0001) %MON dynstat_wvel_min             =  -1.7215302213926E-04
(PID.TID 0000.0001) %MON dynstat_wvel_mean            =   5.6649669255424E-23
(PID.TID 0000.0001) %MON dynstat_wvel_sd              =   2.6852357481626E-05
(PID.TID 0000.0001) %MON dynstat_wvel_del2            =   8.6463595838104E-06
(PID.TID 0000.0001) %MON dynstat_theta_max            =   2.9693876913640E+01
(PID.TID 0000.0001) %MON dynstat_theta_min            =  -1.9165848424525E+00
(PID.TID 0000.0001) %MON dynstat_theta_mean           =   3.6166050503953E+00
(PID.TID 0000.0001) %MON dynstat_theta_sd             =   4.4102950953951E+00
(PID.TID 0000.0001) %MON dynstat_theta_del2           =   1.4734432356941E-01
(PID.TID 0000.0001) %MON dynstat_salt_max             =   3.7461480469125E+01
(PID.TID 0000.0001) %MON dynstat_salt_min             =   2.9762089295090E+01
(PID.TID 0000.0001) %MON dynstat_salt_mean            =   3.4717748756371E+01
(PID.TID 0000.0001) %MON dynstat_salt_sd              =   2.9607393343907E-01
(PID.TID 0000.0001) %MON dynstat_salt_del2            =   2.6366190045226E-02
(PID.TID 0000.0001) %MON advcfl_uvel_max              =   6.3252572287560E-03
(PID.TID 0000.0001) %MON advcfl_vvel_max              =   4.2574897639401E-03
(PID.TID 0000.0001) %MON advcfl_wvel_max              =   2.0873391403833E-01
(PID.TID 0000.0001) %MON advcfl_W_hf_max              =   2.1768957936022E-01
(PID.TID 0000.0001) %MON pe_b_mean                    =   1.0952269431620E-05
(PID.TID 0000.0001) %MON ke_max                       =   7.4676338471534E-04
(PID.TID 0000.0001) %MON ke_mean                      =   4.0047682431375E-05
(PID.TID 0000.0001) %MON ke_vol                       =   1.3226782436723E+18
(PID.TID 0000.0001) %MON vort_r_min                   =  -1.5301597332276E-07
(PID.TID 0000.0001) %MON vort_r_max                   =   1.7605569370977E-07
(PID.TID 0000.0001) %MON vort_a_mean                  =  -2.5205769243887E-05
(PID.TID 0000.0001) %MON vort_a_sd                    =   7.3403039694985E-05
(PID.TID 0000.0001) %MON vort_p_mean                  =  -3.1758669369038E-05
(PID.TID 0000.0001) %MON vort_p_sd                    =   1.3126579822725E-04
(PID.TID 0000.0001) %MON surfExpan_theta_mean         =   1.1255484521398E-04
(PID.TID 0000.0001) %MON surfExpan_salt_mean          =   9.2738976527153E-06
(PID.TID 0000.0001) // =======================================================
(PID.TID 0000.0001) // End MONITOR dynamic field statistics
(PID.TID 0000.0001) // =======================================================
time,SST,SSS,fu,fv,Q,E-P,i0,i1,a,b =   1.2960E+05  1.4368E-01  3.4399E+01 -4.0014E-02 -6.3103E-02  2.6516E+02  0.0000E+00    12     1  5.5000E-01  4.5000E-01
time,fu0,fu1,fu =   1.2960E+05 -4.5368E-02 -3.5633E-02 -4.0014E-02  5.5000E-01  4.5000E-01
 cg2d: Sum(rhs),rhsMax =   2.41022479752218E-14  6.79014299228628E+00
(PID.TID 0000.0001)                    cg2d_init_res =    1.84397152225901E+00
(PID.TID 0000.0001)                       cg2d_iters =    26
(PID.TID 0000.0001)                         cg2d_res =    2.55763799967947E-14
(PID.TID 0000.0001) // =======================================================
(PID.TID 0000.0001) // Begin MONITOR dynamic field statistics
(PID.TID 0000.0001) // =======================================================
(PID.TID 0000.0001) %MON time_tsnumber                =                     4
(PID.TID 0000.0001) %MON time_secondsf                =   1.7280000000000E+05
(PID.TID 0000.0001) %MON dynstat_eta_max              =   5.8744280224194E-01
(PID.TID 0000.0001) %MON dynstat_eta_min              =  -4.9922435351703E-01
(PID.TID 0000.0001) %MON dynstat_eta_mean             =   2.1178643141603E-17
(PID.TID 0000.0001) %MON dynstat_eta_sd               =   1.2282110667859E-01
(PID.TID 0000.0001) %MON dynstat_eta_del2             =   2.9664537156878E-02
(PID.TID 0000.0001) %MON dynstat_uvel_max             =   4.3275845499344E-02
(PID.TID 0000.0001) %MON dynstat_uvel_min             =  -4.2470479735484E-02
(PID.TID 0000.0001) %MON dynstat_uvel_mean            =  -1.9743372237143E-03
(PID.TID 0000.0001) %MON dynstat_uvel_sd              =   3.7660681231396E-03
(PID.TID 0000.0001) %MON dynstat_uvel_del2            =   1.4942871887661E-03
(PID.TID 0000.0001) %MON dynstat_vvel_max             =   5.0865239589952E-02
(PID.TID 0000.0001) %MON dynstat_vvel_min             =  -3.7807952788082E-02
(PID.TID 0000.0001) %MON dynstat_vvel_mean            =   3.2826063249940E-03
(PID.TID 0000.0001) %MON dynstat_vvel_sd              =   1.0483838758421E-02
(PID.TID 0000.0001) %MON dynstat_vvel_del2            =   1.7640692605839E-03
(PID.TID 0000.0001) %MON dynstat_wvel_max             =   1.9909629511443E-04
(PID.TID 0000.0001) %MON dynstat_wvel_min             =  -2.0243042163513E-04
(PID.TID 0000.0001) %MON dynstat_wvel_mean            =   7.7832524560208E-22
(PID.TID 0000.0001) %MON dynstat_wvel_sd              =   2.8700892666286E-05
(PID.TID 0000.0001) %MON dynstat_wvel_del2            =   8.2544056142137E-06
(PID.TID 0000.0001) %MON dynstat_theta_max            =   2.9706174523039E+01
(PID.TID 0000.0001) %MON dynstat_theta_min            =  -1.9336756604122E+00
(PID.TID 0000.0001) %MON dynstat_theta_mean           =   3.6149643579503E+00
(PID.TID 0000.0001) %MON dynstat_theta_sd             =   4.4067800687329E+00
(PID.TID 0000.0001) %MON dynstat_theta_del2           =   1.4653353147298E-01
(PID.TID 0000.0001) %MON dynstat_salt_max             =   3.7457127798715E+01
(PID.TID 0000.0001) %MON dynstat_salt_min             =   2.9766149544949E+01
(PID.TID 0000.0001) %MON dynstat_salt_mean            =   3.4717609911386E+01
(PID.TID 0000.0001) %MON dynstat_salt_sd              =   2.9605659690739E-01
(PID.TID 0000.0001) %MON dynstat_salt_del2            =   2.6253513707640E-02
(PID.TID 0000.0001) %MON advcfl_uvel_max              =   8.9567892640770E-03
(PID.TID 0000.0001) %MON advcfl_vvel_max              =   4.9411501359812E-03
(PID.TID 0000.0001) %MON advcfl_wvel_max              =   2.3259770991650E-01
(PID.TID 0000.0001) %MON advcfl_W_hf_max              =   2.3267734139935E-01
(PID.TID 0000.0001) %MON pe_b_mean                    =   1.9303106763116E-05
(PID.TID 0000.0001) %MON ke_max                       =   1.1227686629833E-03
(PID.TID 0000.0001) %MON ke_mean                      =   6.2396004396255E-05
(PID.TID 0000.0001) %MON ke_vol                       =   1.3226782436723E+18
(PID.TID 0000.0001) %MON vort_r_min                   =  -2.0273078629522E-07
(PID.TID 0000.0001) %MON vort_r_max                   =   2.2565138473853E-07
(PID.TID 0000.0001) %MON vort_a_mean                  =  -2.5205769220858E-05
(PID.TID 0000.0001) %MON vort_a_sd                    =   7.3402896496060E-05
(PID.TID 0000.0001) %MON vort_p_mean                  =  -3.1758669340022E-05
(PID.TID 0000.0001) %MON vort_p_sd                    =   1.3126543256021E-04
(PID.TID 0000.0001) %MON surfExpan_theta_mean         =   1.3465263235916E-04
(PID.TID 0000.0001) %MON surfExpan_salt_mean          =   1.1193488843309E-05
(PID.TID 0000.0001) // =======================================================
(PID.TID 0000.0001) // End MONITOR dynamic field statistics
(PID.TID 0000.0001) // =======================================================
time,SST,SSS,fu,fv,Q,E-P,i0,i1,a,b =   1.7280E+05  1.7385E-01  3.4410E+01 -3.9851E-02 -6.2886E-02  2.6519E+02  0.0000E+00    12     1  5.6667E-01  4.3333E-01
time,fu0,fu1,fu =   1.7280E+05 -4.5368E-02 -3.5633E-02 -3.9851E-02  5.6667E-01  4.3333E-01
 cg2d: Sum(rhs),rhsMax =  -2.06397399171721E-14  6.92874107573634E+00
(PID.TID 0000.0001)                    cg2d_init_res =    1.75169693060435E+00
(PID.TID 0000.0001)                       cg2d_iters =    26
(PID.TID 0000.0001)                         cg2d_res =    2.59803639367287E-14
(PID.TID 0000.0001) // =======================================================
(PID.TID 0000.0001) // Begin MONITOR dynamic field statistics
(PID.TID 0000.0001) // =======================================================
(PID.TID 0000.0001) %MON time_tsnumber                =                     5
(PID.TID 0000.0001) %MON time_secondsf                =   2.1600000000000E+05
(PID.TID 0000.0001) %MON dynstat_eta_max              =   6.3271088691646E-01
(PID.TID 0000.0001) %MON dynstat_eta_min              =  -5.7992543014880E-01
(PID.TID 0000.0001) %MON dynstat_eta_mean             =  -1.6174993881016E-17
(PID.TID 0000.0001) %MON dynstat_eta_sd               =   1.5134274017551E-01
(PID.TID 0000.0001) %MON dynstat_eta_del2             =   2.9337525472240E-02
(PID.TID 0000.0001) %MON dynstat_uvel_max             =   5.5843085399552E-02
(PID.TID 0000.0001) %MON dynstat_uvel_min             =  -5.3444186272245E-02
(PID.TID 0000.0001) %MON dynstat_uvel_mean            =  -2.8074349312549E-03
(PID.TID 0000.0001) %MON dynstat_uvel_sd              =   4.8414577215828E-03
(PID.TID 0000.0001) %MON dynstat_uvel_del2            =   1.8312466378679E-03
(PID.TID 0000.0001) %MON dynstat_vvel_max             =   5.7021703108535E-02
(PID.TID 0000.0001) %MON dynstat_vvel_min             =  -4.9872134658712E-02
(PID.TID 0000.0001) %MON dynstat_vvel_mean            =   3.8899426261082E-03
(PID.TID 0000.0001) %MON dynstat_vvel_sd              =   1.2085737847236E-02
(PID.TID 0000.0001) %MON dynstat_vvel_del2            =   2.1605253585492E-03
(PID.TID 0000.0001) %MON dynstat_wvel_max             =   2.2883633627402E-04
(PID.TID 0000.0001) %MON dynstat_wvel_min             =  -2.3869685302408E-04
(PID.TID 0000.0001) %MON dynstat_wvel_mean            =   4.6104269444253E-22
(PID.TID 0000.0001) %MON dynstat_wvel_sd              =   3.0511636799645E-05
(PID.TID 0000.0001) %MON dynstat_wvel_del2            =   8.9710499789651E-06
(PID.TID 0000.0001) %MON dynstat_theta_max            =   2.9720537578616E+01
(PID.TID 0000.0001) %MON dynstat_theta_min            =  -1.9541377379921E+00
(PID.TID 0000.0001) %MON dynstat_theta_mean           =   3.6131852091261E+00
(PID.TID 0000.0001) %MON dynstat_theta_sd             =   4.4029374252632E+00
(PID.TID 0000.0001) %MON dynstat_theta_del2           =   1.4585453494477E-01
(PID.TID 0000.0001) %MON dynstat_salt_max             =   3.7452892733702E+01
(PID.TID 0000.0001) %MON dynstat_salt_min             =   2.9770341301067E+01
(PID.TID 0000.0001) %MON dynstat_salt_mean            =   3.4717460594606E+01
(PID.TID 0000.0001) %MON dynstat_salt_sd              =   2.9603661183802E-01
(PID.TID 0000.0001) %MON dynstat_salt_del2            =   2.6165231750159E-02
(PID.TID 0000.0001) %MON advcfl_uvel_max              =   1.1746279775619E-02
(PID.TID 0000.0001) %MON advcfl_vvel_max              =   5.5392011979096E-03
(PID.TID 0000.0001) %MON advcfl_wvel_max              =   2.4450384445045E-01
(PID.TID 0000.0001) %MON advcfl_W_hf_max              =   2.4787864229426E-01
(PID.TID 0000.0001) %MON pe_b_mean                    =   2.9309228451694E-05
(PID.TID 0000.0001) %MON ke_max                       =   1.7055394127414E-03
(PID.TID 0000.0001) %MON ke_mean                      =   8.6598059301847E-05
(PID.TID 0000.0001) %MON ke_vol                       =   1.3226782436723E+18
(PID.TID 0000.0001) %MON vort_r_min                   =  -2.4767825566004E-07
(PID.TID 0000.0001) %MON vort_r_max                   =   2.6903270008420E-07
(PID.TID 0000.0001) %MON vort_a_mean                  =  -2.5205769190759E-05
(PID.TID 0000.0001) %MON vort_a_sd                    =   7.3402738153690E-05
(PID.TID 0000.0001) %MON vort_p_mean                  =  -3.1758669302097E-05
(PID.TID 0000.0001) %MON vort_p_sd                    =   1.3126497682505E-04
(PID.TID 0000.0001) %MON surfExpan_theta_mean         =   1.5065591335131E-04
(PID.TID 0000.0001) %MON surfExpan_salt_mean          =   1.2494063027726E-05
(PID.TID 0000.0001) // =======================================================
(PID.TID 0000.0001) // End MONITOR dynamic field statistics
(PID.TID 0000.0001) // =======================================================
time,SST,SSS,fu,fv,Q,E-P,i0,i1,a,b =   2.1600E+05  2.0403E-01  3.4422E+01 -3.9689E-02 -6.2670E-02  2.6521E+02  0.0000E+00    12     1  5.8333E-01  4.1667E-01
time,fu0,fu1,fu =   2.1600E+05 -4.5368E-02 -3.5633E-02 -3.9689E-02  5.8333E-01  4.1667E-01
 cg2d: Sum(rhs),rhsMax =  -4.43846348563426E-14  6.89395558172306E+00
(PID.TID 0000.0001)                    cg2d_init_res =    1.71510090347153E+00
(PID.TID 0000.0001)                       cg2d_iters =    26
(PID.TID 0000.0001)                         cg2d_res =    2.74380017982771E-14
(PID.TID 0000.0001) // =======================================================
(PID.TID 0000.0001) // Begin MONITOR dynamic field statistics
(PID.TID 0000.0001) // =======================================================
(PID.TID 0000.0001) %MON time_tsnumber                =                     6
(PID.TID 0000.0001) %MON time_secondsf                =   2.5920000000000E+05
(PID.TID 0000.0001) %MON dynstat_eta_max              =   7.1959482660992E-01
(PID.TID 0000.0001) %MON dynstat_eta_min              =  -6.4368143553818E-01
(PID.TID 0000.0001) %MON dynstat_eta_mean             =   2.8396084966571E-17
(PID.TID 0000.0001) %MON dynstat_eta_sd               =   1.7871417952577E-01
(PID.TID 0000.0001) %MON dynstat_eta_del2             =   2.8270522712468E-02
(PID.TID 0000.0001) %MON dynstat_uvel_max             =   6.8176134256858E-02
(PID.TID 0000.0001) %MON dynstat_uvel_min             =  -6.2618554241697E-02
(PID.TID 0000.0001) %MON dynstat_uvel_mean            =  -3.7032814808730E-03
(PID.TID 0000.0001) %MON dynstat_uvel_sd              =   6.0227448685320E-03
(PID.TID 0000.0001) %MON dynstat_uvel_del2            =   2.1457376755053E-03
(PID.TID 0000.0001) %MON dynstat_vvel_max             =   6.8809080029910E-02
(PID.TID 0000.0001) %MON dynstat_vvel_min             =  -6.1181399495754E-02
(PID.TID 0000.0001) %MON dynstat_vvel_mean            =   4.3839315343758E-03
(PID.TID 0000.0001) %MON dynstat_vvel_sd              =   1.3369761267322E-02
(PID.TID 0000.0001) %MON dynstat_vvel_del2            =   2.5217186561929E-03
(PID.TID 0000.0001) %MON dynstat_wvel_max             =   2.5627513304539E-04
(PID.TID 0000.0001) %MON dynstat_wvel_min             =  -2.7194470551635E-04
(PID.TID 0000.0001) %MON dynstat_wvel_mean            =  -3.1059278704686E-22
(PID.TID 0000.0001) %MON dynstat_wvel_sd              =   3.2463262659690E-05
(PID.TID 0000.0001) %MON dynstat_wvel_del2            =   1.0209422246153E-05
(PID.TID 0000.0001) %MON dynstat_theta_max            =   2.9726455071511E+01
(PID.TID 0000.0001) %MON dynstat_theta_min            =  -1.9756921639308E+00
(PID.TID 0000.0001) %MON dynstat_theta_mean           =   3.6113235544963E+00
(PID.TID 0000.0001) %MON dynstat_theta_sd             =   4.3988501555984E+00
(PID.TID 0000.0001) %MON dynstat_theta_del2           =   1.4510157381001E-01
(PID.TID 0000.0001) %MON dynstat_salt_max             =   3.7449510091548E+01
(PID.TID 0000.0001) %MON dynstat_salt_min             =   2.9774513629707E+01
(PID.TID 0000.0001) %MON dynstat_salt_mean            =   3.4717306355494E+01
(PID.TID 0000.0001) %MON dynstat_salt_sd              =   2.9601367293946E-01
(PID.TID 0000.0001) %MON dynstat_salt_del2            =   2.6080200287009E-02
(PID.TID 0000.0001) %MON advcfl_uvel_max              =   1.5051312205913E-02
(PID.TID 0000.0001) %MON advcfl_vvel_max              =   6.6842503424225E-03
(PID.TID 0000.0001) %MON advcfl_wvel_max              =   2.1502942959283E-01
(PID.TID 0000.0001) %MON advcfl_W_hf_max              =   2.2312935941223E-01
(PID.TID 0000.0001) %MON pe_b_mean                    =   4.0869490483295E-05
(PID.TID 0000.0001) %MON ke_max                       =   2.4665141762373E-03
(PID.TID 0000.0001) %MON ke_mean                      =   1.1158732146311E-04
(PID.TID 0000.0001) %MON ke_vol                       =   1.3226782436723E+18
(PID.TID 0000.0001) %MON vort_r_min                   =  -2.8619411441847E-07
(PID.TID 0000.0001) %MON vort_r_max                   =   3.0627229316910E-07
(PID.TID 0000.0001) %MON vort_a_mean                  =  -2.5205769176228E-05
(PID.TID 0000.0001) %MON vort_a_sd                    =   7.3402569514177E-05
(PID.TID 0000.0001) %MON vort_p_mean                  =  -3.1758669283789E-05
(PID.TID 0000.0001) %MON vort_p_sd                    =   1.3126444450563E-04
(PID.TID 0000.0001) %MON surfExpan_theta_mean         =   1.6129167394859E-04
(PID.TID 0000.0001) %MON surfExpan_salt_mean          =   1.3255561526922E-05
(PID.TID 0000.0001) // =======================================================
(PID.TID 0000.0001) // End MONITOR dynamic field statistics
(PID.TID 0000.0001) // =======================================================
time,SST,SSS,fu,fv,Q,E-P,i0,i1,a,b =   2.5920E+05  2.3421E-01  3.4434E+01 -3.9527E-02 -6.2453E-02  2.6523E+02  0.0000E+00    12     1  6.0000E-01  4.0000E-01
time,fu0,fu1,fu =   2.5920E+05 -4.5368E-02 -3.5633E-02 -3.9527E-02  6.0000E-01  4.0000E-01
 cg2d: Sum(rhs),rhsMax =   3.53076942682939E-14  7.15197465286573E+00
(PID.TID 0000.0001)                    cg2d_init_res =    1.59738165833911E+00
(PID.TID 0000.0001)                       cg2d_iters =    26
(PID.TID 0000.0001)                         cg2d_res =    2.62641963120248E-14
(PID.TID 0000.0001) // =======================================================
(PID.TID 0000.0001) // Begin MONITOR dynamic field statistics
(PID.TID 0000.0001) // =======================================================
(PID.TID 0000.0001) %MON time_tsnumber                =                     7
(PID.TID 0000.0001) %MON time_secondsf                =   3.0240000000000E+05
(PID.TID 0000.0001) %MON dynstat_eta_max              =   8.2241092333071E-01
(PID.TID 0000.0001) %MON dynstat_eta_min              =  -7.0122105770705E-01
(PID.TID 0000.0001) %MON dynstat_eta_mean             =  -9.0490903310222E-17
(PID.TID 0000.0001) %MON dynstat_eta_sd               =   2.0514323039114E-01
(PID.TID 0000.0001) %MON dynstat_eta_del2             =   2.7124809247728E-02
(PID.TID 0000.0001) %MON dynstat_uvel_max             =   8.0140737374691E-02
(PID.TID 0000.0001) %MON dynstat_uvel_min             =  -7.5133654501574E-02
(PID.TID 0000.0001) %MON dynstat_uvel_mean            =  -4.6308632873894E-03
(PID.TID 0000.0001) %MON dynstat_uvel_sd              =   7.2758117580040E-03
(PID.TID 0000.0001) %MON dynstat_uvel_del2            =   2.4440332152407E-03
(PID.TID 0000.0001) %MON dynstat_vvel_max             =   7.9433858079765E-02
(PID.TID 0000.0001) %MON dynstat_vvel_min             =  -7.2766938732409E-02
(PID.TID 0000.0001) %MON dynstat_vvel_mean            =   4.7577702672406E-03
(PID.TID 0000.0001) %MON dynstat_vvel_sd              =   1.4358569593946E-02
(PID.TID 0000.0001) %MON dynstat_vvel_del2            =   2.8496681004432E-03
(PID.TID 0000.0001) %MON dynstat_wvel_max             =   2.8110385373052E-04
(PID.TID 0000.0001) %MON dynstat_wvel_min             =  -3.0181171442889E-04
(PID.TID 0000.0001) %MON dynstat_wvel_mean            =  -1.1766982581049E-21
(PID.TID 0000.0001) %MON dynstat_wvel_sd              =   3.4463612727843E-05
(PID.TID 0000.0001) %MON dynstat_wvel_del2            =   1.1492159703993E-05
(PID.TID 0000.0001) %MON dynstat_theta_max            =   2.9720036485839E+01
(PID.TID 0000.0001) %MON dynstat_theta_min            =  -1.9960570533266E+00
(PID.TID 0000.0001) %MON dynstat_theta_mean           =   3.6094295501706E+00
(PID.TID 0000.0001) %MON dynstat_theta_sd             =   4.3945911691060E+00
(PID.TID 0000.0001) %MON dynstat_theta_del2           =   1.4421358046575E-01
(PID.TID 0000.0001) %MON dynstat_salt_max             =   3.7446951356462E+01
(PID.TID 0000.0001) %MON dynstat_salt_min             =   2.9778528273974E+01
(PID.TID 0000.0001) %MON dynstat_salt_mean            =   3.4717151911011E+01
(PID.TID 0000.0001) %MON dynstat_salt_sd              =   2.9598386108627E-01
(PID.TID 0000.0001) %MON dynstat_salt_del2            =   2.5992106486503E-02
(PID.TID 0000.0001) %MON advcfl_uvel_max              =   1.7764484438090E-02
(PID.TID 0000.0001) %MON advcfl_vvel_max              =   7.7163623294892E-03
(PID.TID 0000.0001) %MON advcfl_wvel_max              =   1.8338364229278E-01
(PID.TID 0000.0001) %MON advcfl_W_hf_max              =   1.8262148711578E-01
(PID.TID 0000.0001) %MON pe_b_mean                    =   5.3851224168824E-05
(PID.TID 0000.0001) %MON ke_max                       =   3.2883081749723E-03
(PID.TID 0000.0001) %MON ke_mean                      =   1.3651356901637E-04
(PID.TID 0000.0001) %MON ke_vol                       =   1.3226782436723E+18
(PID.TID 0000.0001) %MON vort_r_min                   =  -3.1772573175658E-07
(PID.TID 0000.0001) %MON vort_r_max                   =   3.3848954760849E-07
(PID.TID 0000.0001) %MON vort_a_mean                  =  -2.5205769190669E-05
(PID.TID 0000.0001) %MON vort_a_sd                    =   7.3402395538457E-05
(PID.TID 0000.0001) %MON vort_p_mean                  =  -3.1758669301984E-05
(PID.TID 0000.0001) %MON vort_p_sd                    =   1.3126385217298E-04
(PID.TID 0000.0001) %MON surfExpan_theta_mean         =   1.6714362279348E-04
(PID.TID 0000.0001) %MON surfExpan_salt_mean          =   1.3552568247712E-05
(PID.TID 0000.0001) // =======================================================
(PID.TID 0000.0001) // End MONITOR dynamic field statistics
(PID.TID 0000.0001) // =======================================================
time,SST,SSS,fu,fv,Q,E-P,i0,i1,a,b =   3.0240E+05  2.6438E-01  3.4446E+01 -3.9365E-02 -6.2237E-02  2.6525E+02  0.0000E+00    12     1  6.1667E-01  3.8333E-01
time,fu0,fu1,fu =   3.0240E+05 -4.5368E-02 -3.5633E-02 -3.9365E-02  6.1667E-01  3.8333E-01
 cg2d: Sum(rhs),rhsMax =   2.29990505806743E-13  7.75912737003209E+00
(PID.TID 0000.0001)                    cg2d_init_res =    1.41815021994744E+00
(PID.TID 0000.0001)                       cg2d_iters =    26
(PID.TID 0000.0001)                         cg2d_res =    2.36111238937682E-14
(PID.TID 0000.0001) // =======================================================
(PID.TID 0000.0001) // Begin MONITOR dynamic field statistics
(PID.TID 0000.0001) // =======================================================
(PID.TID 0000.0001) %MON time_tsnumber                =                     8
(PID.TID 0000.0001) %MON time_secondsf                =   3.4560000000000E+05
(PID.TID 0000.0001) %MON dynstat_eta_max              =   8.9650260250649E-01
(PID.TID 0000.0001) %MON dynstat_eta_min              =  -7.3524948566493E-01
(PID.TID 0000.0001) %MON dynstat_eta_mean             =  -6.2026650971179E-17
(PID.TID 0000.0001) %MON dynstat_eta_sd               =   2.3053366335588E-01
(PID.TID 0000.0001) %MON dynstat_eta_del2             =   2.6272288377718E-02
(PID.TID 0000.0001) %MON dynstat_uvel_max             =   9.1706035754971E-02
(PID.TID 0000.0001) %MON dynstat_uvel_min             =  -9.5582619500714E-02
(PID.TID 0000.0001) %MON dynstat_uvel_mean            =  -5.5596287324932E-03
(PID.TID 0000.0001) %MON dynstat_uvel_sd              =   8.5682220849166E-03
(PID.TID 0000.0001) %MON dynstat_uvel_del2            =   2.7287169969854E-03
(PID.TID 0000.0001) %MON dynstat_vvel_max             =   8.7404412837528E-02
(PID.TID 0000.0001) %MON dynstat_vvel_min             =  -8.4408847090383E-02
(PID.TID 0000.0001) %MON dynstat_vvel_mean            =   5.0090108928732E-03
(PID.TID 0000.0001) %MON dynstat_vvel_sd              =   1.5079059299087E-02
(PID.TID 0000.0001) %MON dynstat_vvel_del2            =   3.1472846297013E-03
(PID.TID 0000.0001) %MON dynstat_wvel_max             =   3.0283415405548E-04
(PID.TID 0000.0001) %MON dynstat_wvel_min             =  -3.2829884556914E-04
(PID.TID 0000.0001) %MON dynstat_wvel_mean            =  -2.1057506365187E-22
(PID.TID 0000.0001) %MON dynstat_wvel_sd              =   3.6352000707222E-05
(PID.TID 0000.0001) %MON dynstat_wvel_del2            =   1.2630465920543E-05
(PID.TID 0000.0001) %MON dynstat_theta_max            =   2.9705167312635E+01
(PID.TID 0000.0001) %MON dynstat_theta_min            =  -2.0133922168139E+00
(PID.TID 0000.0001) %MON dynstat_theta_mean           =   3.6075474485900E+00
(PID.TID 0000.0001) %MON dynstat_theta_sd             =   4.3902298522147E+00
(PID.TID 0000.0001) %MON dynstat_theta_del2           =   1.4324101424740E-01
(PID.TID 0000.0001) %MON dynstat_salt_max             =   3.7444925804362E+01
(PID.TID 0000.0001) %MON dynstat_salt_min             =   2.9782263857737E+01
(PID.TID 0000.0001) %MON dynstat_salt_mean            =   3.4717001360436E+01
(PID.TID 0000.0001) %MON dynstat_salt_sd              =   2.9594522266303E-01
(PID.TID 0000.0001) %MON dynstat_salt_del2            =   2.5903061897085E-02
(PID.TID 0000.0001) %MON advcfl_uvel_max              =   1.9385286566539E-02
(PID.TID 0000.0001) %MON advcfl_vvel_max              =   8.4906378080411E-03
(PID.TID 0000.0001) %MON advcfl_wvel_max              =   1.9847903276541E-01
(PID.TID 0000.0001) %MON advcfl_W_hf_max              =   2.0418632289307E-01
(PID.TID 0000.0001) %MON pe_b_mean                    =   6.8006418448687E-05
(PID.TID 0000.0001) %MON ke_max                       =   4.3071999600391E-03
(PID.TID 0000.0001) %MON ke_mean                      =   1.6073997937878E-04
(PID.TID 0000.0001) %MON ke_vol                       =   1.3226782436723E+18
(PID.TID 0000.0001) %MON vort_r_min                   =  -3.4275975421683E-07
(PID.TID 0000.0001) %MON vort_r_max                   =   4.1943167447771E-07
(PID.TID 0000.0001) %MON vort_a_mean                  =  -2.5205769233152E-05
(PID.TID 0000.0001) %MON vort_a_sd                    =   7.3402221263638E-05
(PID.TID 0000.0001) %MON vort_p_mean                  =  -3.1758669355512E-05
(PID.TID 0000.0001) %MON vort_p_sd                    =   1.3126321830709E-04
(PID.TID 0000.0001) %MON surfExpan_theta_mean         =   1.6876531689140E-04
(PID.TID 0000.0001) %MON surfExpan_salt_mean          =   1.3448645988817E-05
(PID.TID 0000.0001) // =======================================================
(PID.TID 0000.0001) // End MONITOR dynamic field statistics
(PID.TID 0000.0001) // =======================================================
time,SST,SSS,fu,fv,Q,E-P,i0,i1,a,b =   3.4560E+05  2.9456E-01  3.4457E+01 -3.9202E-02 -6.2020E-02  2.6528E+02  0.0000E+00    12     1  6.3333E-01  3.6667E-01
time,fu0,fu1,fu =   3.4560E+05 -4.5368E-02 -3.5633E-02 -3.9202E-02  6.3333E-01  3.6667E-01
 cg2d: Sum(rhs),rhsMax =   1.61237776602485E-13  8.10189543860989E+00
(PID.TID 0000.0001)                    cg2d_init_res =    1.30943318165187E+00
(PID.TID 0000.0001)                       cg2d_iters =    25
(PID.TID 0000.0001)                         cg2d_res =    9.75841852012390E-14
(PID.TID 0000.0001) // =======================================================
(PID.TID 0000.0001) // Begin MONITOR dynamic field statistics
(PID.TID 0000.0001) // =======================================================
(PID.TID 0000.0001) %MON time_tsnumber                =                     9
(PID.TID 0000.0001) %MON time_secondsf                =   3.8880000000000E+05
(PID.TID 0000.0001) %MON dynstat_eta_max              =   9.4064172109216E-01
(PID.TID 0000.0001) %MON dynstat_eta_min              =  -8.1284653921715E-01
(PID.TID 0000.0001) %MON dynstat_eta_mean             =   9.6065442169742E-17
(PID.TID 0000.0001) %MON dynstat_eta_sd               =   2.5465324690214E-01
(PID.TID 0000.0001) %MON dynstat_eta_del2             =   2.5570096570488E-02
(PID.TID 0000.0001) %MON dynstat_uvel_max             =   1.0289594293347E-01
(PID.TID 0000.0001) %MON dynstat_uvel_min             =  -1.1425471407149E-01
(PID.TID 0000.0001) %MON dynstat_uvel_mean            =  -6.4602880329664E-03
(PID.TID 0000.0001) %MON dynstat_uvel_sd              =   9.8690485987622E-03
(PID.TID 0000.0001) %MON dynstat_uvel_del2            =   2.9987326787136E-03
(PID.TID 0000.0001) %MON dynstat_vvel_max             =   9.2313953966729E-02
(PID.TID 0000.0001) %MON dynstat_vvel_min             =  -9.5436241659204E-02
(PID.TID 0000.0001) %MON dynstat_vvel_mean            =   5.1397206392689E-03
(PID.TID 0000.0001) %MON dynstat_vvel_sd              =   1.5563600643430E-02
(PID.TID 0000.0001) %MON dynstat_vvel_del2            =   3.4166960850568E-03
(PID.TID 0000.0001) %MON dynstat_wvel_max             =   3.2059520102209E-04
(PID.TID 0000.0001) %MON dynstat_wvel_min             =  -3.5192453575580E-04
(PID.TID 0000.0001) %MON dynstat_wvel_mean            =  -3.2370642504154E-21
(PID.TID 0000.0001) %MON dynstat_wvel_sd              =   3.7995754949943E-05
(PID.TID 0000.0001) %MON dynstat_wvel_del2            =   1.3583144722602E-05
(PID.TID 0000.0001) %MON dynstat_theta_max            =   2.9683514251005E+01
(PID.TID 0000.0001) %MON dynstat_theta_min            =  -2.0265867510494E+00
(PID.TID 0000.0001) %MON dynstat_theta_mean           =   3.6057148486286E+00
(PID.TID 0000.0001) %MON dynstat_theta_sd             =   4.3858307318126E+00
(PID.TID 0000.0001) %MON dynstat_theta_del2           =   1.4227802793396E-01
(PID.TID 0000.0001) %MON dynstat_salt_max             =   3.7443133627112E+01
(PID.TID 0000.0001) %MON dynstat_salt_min             =   2.9785619043049E+01
(PID.TID 0000.0001) %MON dynstat_salt_mean            =   3.4716858166513E+01
(PID.TID 0000.0001) %MON dynstat_salt_sd              =   2.9589856718358E-01
(PID.TID 0000.0001) %MON dynstat_salt_del2            =   2.5817882757732E-02
(PID.TID 0000.0001) %MON advcfl_uvel_max              =   1.9732454285468E-02
(PID.TID 0000.0001) %MON advcfl_vvel_max              =   9.2708655705432E-03
(PID.TID 0000.0001) %MON advcfl_wvel_max              =   2.0775397463326E-01
(PID.TID 0000.0001) %MON advcfl_W_hf_max              =   2.1660299110333E-01
(PID.TID 0000.0001) %MON pe_b_mean                    =   8.2981185690203E-05
(PID.TID 0000.0001) %MON ke_max                       =   5.4183702174993E-03
(PID.TID 0000.0001) %MON ke_mean                      =   1.8381577599503E-04
(PID.TID 0000.0001) %MON ke_vol                       =   1.3226782436723E+18
(PID.TID 0000.0001) %MON vort_r_min                   =  -3.6241054083024E-07
(PID.TID 0000.0001) %MON vort_r_max                   =   5.0229435162115E-07
(PID.TID 0000.0001) %MON vort_a_mean                  =  -2.5205769294173E-05
(PID.TID 0000.0001) %MON vort_a_sd                    =   7.3402051636654E-05
(PID.TID 0000.0001) %MON vort_p_mean                  =  -3.1758669432396E-05
(PID.TID 0000.0001) %MON vort_p_sd                    =   1.3126256325811E-04
(PID.TID 0000.0001) %MON surfExpan_theta_mean         =   1.6670233974006E-04
(PID.TID 0000.0001) %MON surfExpan_salt_mean          =   1.3000316643124E-05
(PID.TID 0000.0001) // =======================================================
(PID.TID 0000.0001) // End MONITOR dynamic field statistics
(PID.TID 0000.0001) // =======================================================
time,SST,SSS,fu,fv,Q,E-P,i0,i1,a,b =   3.8880E+05  3.2473E-01  3.4469E+01 -3.9040E-02 -6.1804E-02  2.6530E+02  0.0000E+00    12     1  6.5000E-01  3.5000E-01
time,fu0,fu1,fu =   3.8880E+05 -4.5368E-02 -3.5633E-02 -3.9040E-02  6.5000E-01  3.5000E-01
 cg2d: Sum(rhs),rhsMax =   4.89636543116179E-15  8.20838987866646E+00
(PID.TID 0000.0001)                    cg2d_init_res =    1.24843072612954E+00
(PID.TID 0000.0001)                       cg2d_iters =    25
(PID.TID 0000.0001)                         cg2d_res =    9.14512452478173E-14
(PID.TID 0000.0001) // =======================================================
(PID.TID 0000.0001) // Begin MONITOR dynamic field statistics
(PID.TID 0000.0001) // =======================================================
(PID.TID 0000.0001) %MON time_tsnumber                =                    10
(PID.TID 0000.0001) %MON time_secondsf                =   4.3200000000000E+05
(PID.TID 0000.0001) %MON dynstat_eta_max              =   9.5839646272562E-01
(PID.TID 0000.0001) %MON dynstat_eta_min              =  -8.6938695004638E-01
(PID.TID 0000.0001) %MON dynstat_eta_mean             =   2.2604898897786E-17
(PID.TID 0000.0001) %MON dynstat_eta_sd               =   2.7723382739225E-01
(PID.TID 0000.0001) %MON dynstat_eta_del2             =   2.4849539704941E-02
(PID.TID 0000.0001) %MON dynstat_uvel_max             =   1.1373756886609E-01
(PID.TID 0000.0001) %MON dynstat_uvel_min             =  -1.2999275285327E-01
(PID.TID 0000.0001) %MON dynstat_uvel_mean            =  -7.3056376945952E-03
(PID.TID 0000.0001) %MON dynstat_uvel_sd              =   1.1150072771163E-02
(PID.TID 0000.0001) %MON dynstat_uvel_del2            =   3.2513018519955E-03
(PID.TID 0000.0001) %MON dynstat_vvel_max             =   9.4244432993564E-02
(PID.TID 0000.0001) %MON dynstat_vvel_min             =  -1.0568944886626E-01
(PID.TID 0000.0001) %MON dynstat_vvel_mean            =   5.1564891932792E-03
(PID.TID 0000.0001) %MON dynstat_vvel_sd              =   1.5849828484518E-02
(PID.TID 0000.0001) %MON dynstat_vvel_del2            =   3.6614959438664E-03
(PID.TID 0000.0001) %MON dynstat_wvel_max             =   3.3353583252320E-04
(PID.TID 0000.0001) %MON dynstat_wvel_min             =  -3.7345509015286E-04
(PID.TID 0000.0001) %MON dynstat_wvel_mean            =  -3.8700953676190E-22
(PID.TID 0000.0001) %MON dynstat_wvel_sd              =   3.9324350735682E-05
(PID.TID 0000.0001) %MON dynstat_wvel_del2            =   1.4353228646841E-05
(PID.TID 0000.0001) %MON dynstat_theta_max            =   2.9658224716121E+01
(PID.TID 0000.0001) %MON dynstat_theta_min            =  -2.0353181010665E+00
(PID.TID 0000.0001) %MON dynstat_theta_mean           =   3.6039629480721E+00
(PID.TID 0000.0001) %MON dynstat_theta_sd             =   4.3814523478263E+00
(PID.TID 0000.0001) %MON dynstat_theta_del2           =   1.4133133462849E-01
(PID.TID 0000.0001) %MON dynstat_salt_max             =   3.7441345491798E+01
(PID.TID 0000.0001) %MON dynstat_salt_min             =   2.9788514598536E+01
(PID.TID 0000.0001) %MON dynstat_salt_mean            =   3.4716725143937E+01
(PID.TID 0000.0001) %MON dynstat_salt_sd              =   2.9584489991184E-01
(PID.TID 0000.0001) %MON dynstat_salt_del2            =   2.5734084096470E-02
(PID.TID 0000.0001) %MON advcfl_uvel_max              =   1.8856814078862E-02
(PID.TID 0000.0001) %MON advcfl_vvel_max              =   1.0266882429872E-02
(PID.TID 0000.0001) %MON advcfl_wvel_max              =   2.1508813913860E-01
(PID.TID 0000.0001) %MON advcfl_W_hf_max              =   2.1059824369057E-01
(PID.TID 0000.0001) %MON pe_b_mean                    =   9.8349836351218E-05
(PID.TID 0000.0001) %MON ke_max                       =   6.6177441360542E-03
(PID.TID 0000.0001) %MON ke_mean                      =   2.0544968500967E-04
(PID.TID 0000.0001) %MON ke_vol                       =   1.3226782436723E+18
(PID.TID 0000.0001) %MON vort_r_min                   =  -3.7957105305886E-07
(PID.TID 0000.0001) %MON vort_r_max                   =   5.8076044158651E-07
(PID.TID 0000.0001) %MON vort_a_mean                  =  -2.5205769362016E-05
(PID.TID 0000.0001) %MON vort_a_sd                    =   7.3401891341824E-05
(PID.TID 0000.0001) %MON vort_p_mean                  =  -3.1758669517877E-05
(PID.TID 0000.0001) %MON vort_p_sd                    =   1.3126190975343E-04
(PID.TID 0000.0001) %MON surfExpan_theta_mean         =   1.6153785403184E-04
(PID.TID 0000.0001) %MON surfExpan_salt_mean          =   1.2267062907306E-05
(PID.TID 0000.0001) // =======================================================
(PID.TID 0000.0001) // End MONITOR dynamic field statistics
(PID.TID 0000.0001) // =======================================================
time,SST,SSS,fu,fv,Q,E-P,i0,i1,a,b =   4.3200E+05  3.5491E-01  3.4481E+01 -3.8878E-02 -6.1587E-02  2.6532E+02  0.0000E+00    12     1  6.6667E-01  3.3333E-01
time,fu0,fu1,fu =   4.3200E+05 -4.5368E-02 -3.5633E-02 -3.8878E-02  6.6667E-01  3.3333E-01
 cg2d: Sum(rhs),rhsMax =   2.18584698952196E-13  8.13787538473573E+00
(PID.TID 0000.0001)                    cg2d_init_res =    1.21764755343424E+00
(PID.TID 0000.0001)                       cg2d_iters =    25
(PID.TID 0000.0001)                         cg2d_res =    8.73112785950313E-14
(PID.TID 0000.0001) // =======================================================
(PID.TID 0000.0001) // Begin MONITOR dynamic field statistics
(PID.TID 0000.0001) // =======================================================
(PID.TID 0000.0001) %MON time_tsnumber                =                    11
(PID.TID 0000.0001) %MON time_secondsf                =   4.7520000000000E+05
(PID.TID 0000.0001) %MON dynstat_eta_max              =   9.5610500298100E-01
(PID.TID 0000.0001) %MON dynstat_eta_min              =  -9.2347743976481E-01
(PID.TID 0000.0001) %MON dynstat_eta_mean             =  -6.2635031804474E-17
(PID.TID 0000.0001) %MON dynstat_eta_sd               =   2.9801988399227E-01
(PID.TID 0000.0001) %MON dynstat_eta_del2             =   2.4165571235281E-02
(PID.TID 0000.0001) %MON dynstat_uvel_max             =   1.2423150973068E-01
(PID.TID 0000.0001) %MON dynstat_uvel_min             =  -1.4212537732057E-01
(PID.TID 0000.0001) %MON dynstat_uvel_mean            =  -8.0714442278369E-03
(PID.TID 0000.0001) %MON dynstat_uvel_sd              =   1.2387262689897E-02
(PID.TID 0000.0001) %MON dynstat_uvel_del2            =   3.4894734945985E-03
(PID.TID 0000.0001) %MON dynstat_vvel_max             =   1.0267072707750E-01
(PID.TID 0000.0001) %MON dynstat_vvel_min             =  -1.1495449299615E-01
(PID.TID 0000.0001) %MON dynstat_vvel_mean            =   5.0702590648183E-03
(PID.TID 0000.0001) %MON dynstat_vvel_sd              =   1.5979352217675E-02
(PID.TID 0000.0001) %MON dynstat_vvel_del2            =   3.8841206441141E-03
(PID.TID 0000.0001) %MON dynstat_wvel_max             =   3.4118272958961E-04
(PID.TID 0000.0001) %MON dynstat_wvel_min             =  -3.9350646470511E-04
(PID.TID 0000.0001) %MON dynstat_wvel_mean            =  -7.2982247904343E-22
(PID.TID 0000.0001) %MON dynstat_wvel_sd              =   4.0324072344178E-05
(PID.TID 0000.0001) %MON dynstat_wvel_del2            =   1.4965131419388E-05
(PID.TID 0000.0001) %MON dynstat_theta_max            =   2.9631739620573E+01
(PID.TID 0000.0001) %MON dynstat_theta_min            =  -2.0399153192128E+00
(PID.TID 0000.0001) %MON dynstat_theta_mean           =   3.6023162060840E+00
(PID.TID 0000.0001) %MON dynstat_theta_sd             =   4.3771457167016E+00
(PID.TID 0000.0001) %MON dynstat_theta_del2           =   1.4043086489566E-01
(PID.TID 0000.0001) %MON dynstat_salt_max             =   3.7439433201862E+01
(PID.TID 0000.0001) %MON dynstat_salt_min             =   2.9790894406875E+01
(PID.TID 0000.0001) %MON dynstat_salt_mean            =   3.4716604361579E+01
(PID.TID 0000.0001) %MON dynstat_salt_sd              =   2.9578665586918E-01
(PID.TID 0000.0001) %MON dynstat_salt_del2            =   2.5656374126673E-02
(PID.TID 0000.0001) %MON advcfl_uvel_max              =   1.9785726453333E-02
(PID.TID 0000.0001) %MON advcfl_vvel_max              =   1.1166907170369E-02
(PID.TID 0000.0001) %MON advcfl_wvel_max              =   2.1779859932713E-01
(PID.TID 0000.0001) %MON advcfl_W_hf_max              =   2.0603407397735E-01
(PID.TID 0000.0001) %MON pe_b_mean                    =   1.1365058690644E-04
(PID.TID 0000.0001) %MON ke_max                       =   7.8966171297005E-03
(PID.TID 0000.0001) %MON ke_mean                      =   2.2548429593959E-04
(PID.TID 0000.0001) %MON ke_vol                       =   1.3226782436723E+18
(PID.TID 0000.0001) %MON vort_r_min                   =  -3.9933717060443E-07
(PID.TID 0000.0001) %MON vort_r_max                   =   6.5182434230906E-07
(PID.TID 0000.0001) %MON vort_a_mean                  =  -2.5205769425787E-05
(PID.TID 0000.0001) %MON vort_a_sd                    =   7.3401744646186E-05
(PID.TID 0000.0001) %MON vort_p_mean                  =  -3.1758669598227E-05
(PID.TID 0000.0001) %MON vort_p_sd                    =   1.3126128190104E-04
(PID.TID 0000.0001) %MON surfExpan_theta_mean         =   1.5383354477023E-04
(PID.TID 0000.0001) %MON surfExpan_salt_mean          =   1.1309640229728E-05
(PID.TID 0000.0001) // =======================================================
(PID.TID 0000.0001) // End MONITOR dynamic field statistics
(PID.TID 0000.0001) // =======================================================
time,SST,SSS,fu,fv,Q,E-P,i0,i1,a,b =   4.7520E+05  3.8508E-01  3.4492E+01 -3.8716E-02 -6.1371E-02  2.6534E+02  0.0000E+00    12     1  6.8333E-01  3.1667E-01
time,fu0,fu1,fu =   4.7520E+05 -4.5368E-02 -3.5633E-02 -3.8716E-02  6.8333E-01  3.1667E-01
 cg2d: Sum(rhs),rhsMax =   7.69367208830474E-14  8.14788871653525E+00
(PID.TID 0000.0001)                    cg2d_init_res =    1.17638061420833E+00
(PID.TID 0000.0001)                       cg2d_iters =    25
(PID.TID 0000.0001)                         cg2d_res =    8.27100378162337E-14
(PID.TID 0000.0001) // =======================================================
(PID.TID 0000.0001) // Begin MONITOR dynamic field statistics
(PID.TID 0000.0001) // =======================================================
(PID.TID 0000.0001) %MON time_tsnumber                =                    12
(PID.TID 0000.0001) %MON time_secondsf                =   5.1840000000000E+05
(PID.TID 0000.0001) %MON dynstat_eta_max              =   1.0074952809529E+00
(PID.TID 0000.0001) %MON dynstat_eta_min              =  -1.0456219575825E+00
(PID.TID 0000.0001) %MON dynstat_eta_mean             =  -1.1721638909097E-16
(PID.TID 0000.0001) %MON dynstat_eta_sd               =   3.1679446640016E-01
(PID.TID 0000.0001) %MON dynstat_eta_del2             =   2.3412675628879E-02
(PID.TID 0000.0001) %MON dynstat_uvel_max             =   1.3434959297708E-01
(PID.TID 0000.0001) %MON dynstat_uvel_min             =  -1.5042032790358E-01
(PID.TID 0000.0001) %MON dynstat_uvel_mean            =  -8.7373304748457E-03
(PID.TID 0000.0001) %MON dynstat_uvel_sd              =   1.3561664535957E-02
(PID.TID 0000.0001) %MON dynstat_uvel_del2            =   3.7121774754604E-03
(PID.TID 0000.0001) %MON dynstat_vvel_max             =   1.0909702753802E-01
(PID.TID 0000.0001) %MON dynstat_vvel_min             =  -1.2299796413188E-01
(PID.TID 0000.0001) %MON dynstat_vvel_mean            =   4.8958444989168E-03
(PID.TID 0000.0001) %MON dynstat_vvel_sd              =   1.5995481610453E-02
(PID.TID 0000.0001) %MON dynstat_vvel_del2            =   4.0875317034233E-03
(PID.TID 0000.0001) %MON dynstat_wvel_max             =   3.4889552673259E-04
(PID.TID 0000.0001) %MON dynstat_wvel_min             =  -4.1226545760249E-04
(PID.TID 0000.0001) %MON dynstat_wvel_mean            =  -2.0020047503821E-21
(PID.TID 0000.0001) %MON dynstat_wvel_sd              =   4.1016284154148E-05
(PID.TID 0000.0001) %MON dynstat_wvel_del2            =   1.5439433224812E-05
(PID.TID 0000.0001) %MON dynstat_theta_max            =   2.9604817057475E+01
(PID.TID 0000.0001) %MON dynstat_theta_min            =  -2.0410855239808E+00
(PID.TID 0000.0001) %MON dynstat_theta_mean           =   3.6007932880016E+00
(PID.TID 0000.0001) %MON dynstat_theta_sd             =   4.3729551427050E+00
(PID.TID 0000.0001) %MON dynstat_theta_del2           =   1.3957828086700E-01
(PID.TID 0000.0001) %MON dynstat_salt_max             =   3.7437313117321E+01
(PID.TID 0000.0001) %MON dynstat_salt_min             =   2.9792878071387E+01
(PID.TID 0000.0001) %MON dynstat_salt_mean            =   3.4716497212698E+01
(PID.TID 0000.0001) %MON dynstat_salt_sd              =   2.9572488673147E-01
(PID.TID 0000.0001) %MON dynstat_salt_del2            =   2.5585432542577E-02
(PID.TID 0000.0001) %MON advcfl_uvel_max              =   2.3574391488351E-02
(PID.TID 0000.0001) %MON advcfl_vvel_max              =   1.1948265890322E-02
(PID.TID 0000.0001) %MON advcfl_wvel_max              =   2.1819616909164E-01
(PID.TID 0000.0001) %MON advcfl_W_hf_max              =   1.8945580939031E-01
(PID.TID 0000.0001) %MON pe_b_mean                    =   1.2842109660078E-04
(PID.TID 0000.0001) %MON ke_max                       =   9.2378762547419E-03
(PID.TID 0000.0001) %MON ke_mean                      =   2.4386550196219E-04
(PID.TID 0000.0001) %MON ke_vol                       =   1.3226782436723E+18
(PID.TID 0000.0001) %MON vort_r_min                   =  -4.0763666903562E-07
(PID.TID 0000.0001) %MON vort_r_max                   =   7.1290554360011E-07
(PID.TID 0000.0001) %MON vort_a_mean                  =  -2.5205769476608E-05
(PID.TID 0000.0001) %MON vort_a_sd                    =   7.3401615245797E-05
(PID.TID 0000.0001) %MON vort_p_mean                  =  -3.1758669662260E-05
(PID.TID 0000.0001) %MON vort_p_sd                    =   1.3126070388758E-04
(PID.TID 0000.0001) %MON surfExpan_theta_mean         =   1.4414335205440E-04
(PID.TID 0000.0001) %MON surfExpan_salt_mean          =   1.0192739787185E-05
(PID.TID 0000.0001) // =======================================================
(PID.TID 0000.0001) // End MONITOR dynamic field statistics
(PID.TID 0000.0001) // =======================================================
time,SST,SSS,fu,fv,Q,E-P,i0,i1,a,b =   5.1840E+05  4.1526E-01  3.4504E+01 -3.8553E-02 -6.1154E-02  2.6537E+02  0.0000E+00    12     1  7.0000E-01  3.0000E-01
time,fu0,fu1,fu =   5.1840E+05 -4.5368E-02 -3.5633E-02 -3.8553E-02  7.0000E-01  3.0000E-01
 cg2d: Sum(rhs),rhsMax =  -3.80615677864071E-14  8.75897655452794E+00
(PID.TID 0000.0001)                    cg2d_init_res =    1.05920575967566E+00
(PID.TID 0000.0001)                       cg2d_iters =    25
(PID.TID 0000.0001)                         cg2d_res =    7.25210998650425E-14
(PID.TID 0000.0001) // =======================================================
(PID.TID 0000.0001) // Begin MONITOR dynamic field statistics
(PID.TID 0000.0001) // =======================================================
(PID.TID 0000.0001) %MON time_tsnumber                =                    13
(PID.TID 0000.0001) %MON time_secondsf                =   5.6160000000000E+05
(PID.TID 0000.0001) %MON dynstat_eta_max              =   1.0612829545239E+00
(PID.TID 0000.0001) %MON dynstat_eta_min              =  -1.1653293728963E+00
(PID.TID 0000.0001) %MON dynstat_eta_mean             =   2.0589402854735E-16
(PID.TID 0000.0001) %MON dynstat_eta_sd               =   3.3339718370767E-01
(PID.TID 0000.0001) %MON dynstat_eta_del2             =   2.2673857134681E-02
(PID.TID 0000.0001) %MON dynstat_uvel_max             =   1.4404834909200E-01
(PID.TID 0000.0001) %MON dynstat_uvel_min             =  -1.5498454381975E-01
(PID.TID 0000.0001) %MON dynstat_uvel_mean            =  -9.2875691843161E-03
(PID.TID 0000.0001) %MON dynstat_uvel_sd              =   1.4659494862953E-02
(PID.TID 0000.0001) %MON dynstat_uvel_del2            =   3.9196152096627E-03
(PID.TID 0000.0001) %MON dynstat_vvel_max             =   1.1511302164944E-01
(PID.TID 0000.0001) %MON dynstat_vvel_min             =  -1.2959861958381E-01
(PID.TID 0000.0001) %MON dynstat_vvel_mean            =   4.6511499008792E-03
(PID.TID 0000.0001) %MON dynstat_vvel_sd              =   1.5940317979500E-02
(PID.TID 0000.0001) %MON dynstat_vvel_del2            =   4.2693770607714E-03
(PID.TID 0000.0001) %MON dynstat_wvel_max             =   3.5504290879815E-04
(PID.TID 0000.0001) %MON dynstat_wvel_min             =  -4.3379769531725E-04
(PID.TID 0000.0001) %MON dynstat_wvel_mean            =  -1.2901547391768E-21
(PID.TID 0000.0001) %MON dynstat_wvel_sd              =   4.1437034706664E-05
(PID.TID 0000.0001) %MON dynstat_wvel_del2            =   1.5789013179665E-05
(PID.TID 0000.0001) %MON dynstat_theta_max            =   2.9576595204747E+01
(PID.TID 0000.0001) %MON dynstat_theta_min            =  -2.0394050958000E+00
(PID.TID 0000.0001) %MON dynstat_theta_mean           =   3.5994072974539E+00
(PID.TID 0000.0001) %MON dynstat_theta_sd             =   4.3689205565388E+00
(PID.TID 0000.0001) %MON dynstat_theta_del2           =   1.3880885020021E-01
(PID.TID 0000.0001) %MON dynstat_salt_max             =   3.7435093489310E+01
(PID.TID 0000.0001) %MON dynstat_salt_min             =   2.9794662480104E+01
(PID.TID 0000.0001) %MON dynstat_salt_mean            =   3.4716404418829E+01
(PID.TID 0000.0001) %MON dynstat_salt_sd              =   2.9566039147641E-01
(PID.TID 0000.0001) %MON dynstat_salt_del2            =   2.5522700783647E-02
(PID.TID 0000.0001) %MON advcfl_uvel_max              =   2.8361157493356E-02
(PID.TID 0000.0001) %MON advcfl_vvel_max              =   1.2589466636584E-02
(PID.TID 0000.0001) %MON advcfl_wvel_max              =   2.2481908658221E-01
(PID.TID 0000.0001) %MON advcfl_W_hf_max              =   1.9030767300208E-01
(PID.TID 0000.0001) %MON pe_b_mean                    =   1.4223453392029E-04
(PID.TID 0000.0001) %MON ke_max                       =   1.0616555645558E-02
(PID.TID 0000.0001) %MON ke_mean                      =   2.6060733122807E-04
(PID.TID 0000.0001) %MON ke_vol                       =   1.3226782436723E+18
(PID.TID 0000.0001) %MON vort_r_min                   =  -4.4248255377681E-07
(PID.TID 0000.0001) %MON vort_r_max                   =   7.6186073875093E-07
(PID.TID 0000.0001) %MON vort_a_mean                  =  -2.5205769508170E-05
(PID.TID 0000.0001) %MON vort_a_sd                    =   7.3401506117212E-05
(PID.TID 0000.0001) %MON vort_p_mean                  =  -3.1758669702028E-05
(PID.TID 0000.0001) %MON vort_p_sd                    =   1.3126019748032E-04
(PID.TID 0000.0001) %MON surfExpan_theta_mean         =   1.3296724843019E-04
(PID.TID 0000.0001) %MON surfExpan_salt_mean          =   8.9758486951626E-06
(PID.TID 0000.0001) // =======================================================
(PID.TID 0000.0001) // End MONITOR dynamic field statistics
(PID.TID 0000.0001) // =======================================================
time,SST,SSS,fu,fv,Q,E-P,i0,i1,a,b =   5.6160E+05  4.4544E-01  3.4516E+01 -3.8391E-02 -6.0938E-02  2.6539E+02  0.0000E+00    12     1  7.1667E-01  2.8333E-01
time,fu0,fu1,fu =   5.6160E+05 -4.5368E-02 -3.5633E-02 -3.8391E-02  7.1667E-01  2.8333E-01
 cg2d: Sum(rhs),rhsMax =   1.24843711757361E-13  9.51806764571326E+00
(PID.TID 0000.0001)                    cg2d_init_res =    9.45113255059036E-01
(PID.TID 0000.0001)                       cg2d_iters =    25
(PID.TID 0000.0001)                         cg2d_res =    6.20690420683159E-14
(PID.TID 0000.0001) // =======================================================
(PID.TID 0000.0001) // Begin MONITOR dynamic field statistics
(PID.TID 0000.0001) // =======================================================
(PID.TID 0000.0001) %MON time_tsnumber                =                    14
(PID.TID 0000.0001) %MON time_secondsf                =   6.0480000000000E+05
(PID.TID 0000.0001) %MON dynstat_eta_max              =   1.1485355435680E+00
(PID.TID 0000.0001) %MON dynstat_eta_min              =  -1.2548043332483E+00
(PID.TID 0000.0001) %MON dynstat_eta_mean             =   1.4093736164456E-16
(PID.TID 0000.0001) %MON dynstat_eta_sd               =   3.4773663752821E-01
(PID.TID 0000.0001) %MON dynstat_eta_del2             =   2.1998953645943E-02
(PID.TID 0000.0001) %MON dynstat_uvel_max             =   1.5328216187044E-01
(PID.TID 0000.0001) %MON dynstat_uvel_min             =  -1.5614301509586E-01
(PID.TID 0000.0001) %MON dynstat_uvel_mean            =  -9.7116378880277E-03
(PID.TID 0000.0001) %MON dynstat_uvel_sd              =   1.5671691996061E-02
(PID.TID 0000.0001) %MON dynstat_uvel_del2            =   4.1134680693297E-03
(PID.TID 0000.0001) %MON dynstat_vvel_max             =   1.2142408007298E-01
(PID.TID 0000.0001) %MON dynstat_vvel_min             =  -1.3456839609753E-01
(PID.TID 0000.0001) %MON dynstat_vvel_mean            =   4.3561209034575E-03
(PID.TID 0000.0001) %MON dynstat_vvel_sd              =   1.5851682122054E-02
(PID.TID 0000.0001) %MON dynstat_vvel_del2            =   4.4324654932066E-03
(PID.TID 0000.0001) %MON dynstat_wvel_max             =   3.6435768494643E-04
(PID.TID 0000.0001) %MON dynstat_wvel_min             =  -4.5417872331078E-04
(PID.TID 0000.0001) %MON dynstat_wvel_mean            =  -3.9273071986790E-22
(PID.TID 0000.0001) %MON dynstat_wvel_sd              =   4.1623257392528E-05
(PID.TID 0000.0001) %MON dynstat_wvel_del2            =   1.6028652533277E-05
(PID.TID 0000.0001) %MON dynstat_theta_max            =   2.9551094168611E+01
(PID.TID 0000.0001) %MON dynstat_theta_min            =  -2.0351975074732E+00
(PID.TID 0000.0001) %MON dynstat_theta_mean           =   3.5981667444863E+00
(PID.TID 0000.0001) %MON dynstat_theta_sd             =   4.3650785305807E+00
(PID.TID 0000.0001) %MON dynstat_theta_del2           =   1.3811773513996E-01
(PID.TID 0000.0001) %MON dynstat_salt_max             =   3.7432983177770E+01
(PID.TID 0000.0001) %MON dynstat_salt_min             =   2.9796149611561E+01
(PID.TID 0000.0001) %MON dynstat_salt_mean            =   3.4716326194445E+01
(PID.TID 0000.0001) %MON dynstat_salt_sd              =   2.9559413106514E-01
(PID.TID 0000.0001) %MON dynstat_salt_del2            =   2.5466671682623E-02
(PID.TID 0000.0001) %MON advcfl_uvel_max              =   3.2411804031129E-02
(PID.TID 0000.0001) %MON advcfl_vvel_max              =   1.3072240572075E-02
(PID.TID 0000.0001) %MON advcfl_wvel_max              =   2.1573655509124E-01
(PID.TID 0000.0001) %MON advcfl_W_hf_max              =   1.8207111190023E-01
(PID.TID 0000.0001) %MON pe_b_mean                    =   1.5473269895972E-04
(PID.TID 0000.0001) %MON ke_max                       =   1.2003199982366E-02
(PID.TID 0000.0001) %MON ke_mean                      =   2.7575761686083E-04
(PID.TID 0000.0001) %MON ke_vol                       =   1.3226782436723E+18
(PID.TID 0000.0001) %MON vort_r_min                   =  -4.8129612415280E-07
(PID.TID 0000.0001) %MON vort_r_max                   =   7.9698724777288E-07
(PID.TID 0000.0001) %MON vort_a_mean                  =  -2.5205769517082E-05
(PID.TID 0000.0001) %MON vort_a_sd                    =   7.3401419396356E-05
(PID.TID 0000.0001) %MON vort_p_mean                  =  -3.1758669713256E-05
(PID.TID 0000.0001) %MON vort_p_sd                    =   1.3125977968188E-04
(PID.TID 0000.0001) %MON surfExpan_theta_mean         =   1.2074627115918E-04
(PID.TID 0000.0001) %MON surfExpan_salt_mean          =   7.7075898005179E-06
(PID.TID 0000.0001) // =======================================================
(PID.TID 0000.0001) // End MONITOR dynamic field statistics
(PID.TID 0000.0001) // =======================================================
time,SST,SSS,fu,fv,Q,E-P,i0,i1,a,b =   6.0480E+05  4.7561E-01  3.4527E+01 -3.8229E-02 -6.0721E-02  2.6541E+02  0.0000E+00    12     1  7.3333E-01  2.6667E-01
time,fu0,fu1,fu =   6.0480E+05 -4.5368E-02 -3.5633E-02 -3.8229E-02  7.3333E-01  2.6667E-01
 cg2d: Sum(rhs),rhsMax =   2.69877002689878E-13  1.00868019718989E+01
(PID.TID 0000.0001)                    cg2d_init_res =    8.67243363999128E-01
(PID.TID 0000.0001)                       cg2d_iters =    25
(PID.TID 0000.0001)                         cg2d_res =    5.35793819377629E-14
(PID.TID 0000.0001) // =======================================================
(PID.TID 0000.0001) // Begin MONITOR dynamic field statistics
(PID.TID 0000.0001) // =======================================================
(PID.TID 0000.0001) %MON time_tsnumber                =                    15
(PID.TID 0000.0001) %MON time_secondsf                =   6.4800000000000E+05
(PID.TID 0000.0001) %MON dynstat_eta_max              =   1.2150971531379E+00
(PID.TID 0000.0001) %MON dynstat_eta_min              =  -1.3020601440967E+00
(PID.TID 0000.0001) %MON dynstat_eta_mean             =  -9.0608329903889E-17
(PID.TID 0000.0001) %MON dynstat_eta_sd               =   3.5979594027971E-01
(PID.TID 0000.0001) %MON dynstat_eta_del2             =   2.1424780258007E-02
(PID.TID 0000.0001) %MON dynstat_uvel_max             =   1.6200762688648E-01
(PID.TID 0000.0001) %MON dynstat_uvel_min             =  -1.5433012197518E-01
(PID.TID 0000.0001) %MON dynstat_uvel_mean            =  -1.0004445613817E-02
(PID.TID 0000.0001) %MON dynstat_uvel_sd              =   1.6593270130029E-02
(PID.TID 0000.0001) %MON dynstat_uvel_del2            =   4.2923917507792E-03
(PID.TID 0000.0001) %MON dynstat_vvel_max             =   1.3606226549395E-01
(PID.TID 0000.0001) %MON dynstat_vvel_min             =  -1.3776614603000E-01
(PID.TID 0000.0001) %MON dynstat_vvel_mean            =   4.0315325747644E-03
(PID.TID 0000.0001) %MON dynstat_vvel_sd              =   1.5760332811353E-02
(PID.TID 0000.0001) %MON dynstat_vvel_del2            =   4.5770308274202E-03
(PID.TID 0000.0001) %MON dynstat_wvel_max             =   3.7148192568766E-04
(PID.TID 0000.0001) %MON dynstat_wvel_min             =  -4.7123660337947E-04
(PID.TID 0000.0001) %MON dynstat_wvel_mean            =   6.5964607870817E-23
(PID.TID 0000.0001) %MON dynstat_wvel_sd              =   4.1606746241211E-05
(PID.TID 0000.0001) %MON dynstat_wvel_del2            =   1.6167259396836E-05
(PID.TID 0000.0001) %MON dynstat_theta_max            =   2.9542395231782E+01
(PID.TID 0000.0001) %MON dynstat_theta_min            =  -2.0208385524422E+00
(PID.TID 0000.0001) %MON dynstat_theta_mean           =   3.5970762151951E+00
(PID.TID 0000.0001) %MON dynstat_theta_sd             =   4.3614662068472E+00
(PID.TID 0000.0001) %MON dynstat_theta_del2           =   1.3751048392990E-01
(PID.TID 0000.0001) %MON dynstat_salt_max             =   3.7430915336348E+01
(PID.TID 0000.0001) %MON dynstat_salt_min             =   2.9797349653746E+01
(PID.TID 0000.0001) %MON dynstat_salt_mean            =   3.4716262412585E+01
(PID.TID 0000.0001) %MON dynstat_salt_sd              =   2.9552851352489E-01
(PID.TID 0000.0001) %MON dynstat_salt_del2            =   2.5416727615389E-02
(PID.TID 0000.0001) %MON advcfl_uvel_max              =   3.5305134337997E-02
(PID.TID 0000.0001) %MON advcfl_vvel_max              =   1.3382876335143E-02
(PID.TID 0000.0001) %MON advcfl_wvel_max              =   1.9084898055017E-01
(PID.TID 0000.0001) %MON advcfl_W_hf_max              =   1.5963714451472E-01
(PID.TID 0000.0001) %MON pe_b_mean                    =   1.6565086865298E-04
(PID.TID 0000.0001) %MON ke_max                       =   1.3368001581601E-02
(PID.TID 0000.0001) %MON ke_mean                      =   2.8937060833197E-04
(PID.TID 0000.0001) %MON ke_vol                       =   1.3226782436723E+18
(PID.TID 0000.0001) %MON vort_r_min                   =  -5.1855959119913E-07
(PID.TID 0000.0001) %MON vort_r_max                   =   8.1700957906489E-07
(PID.TID 0000.0001) %MON vort_a_mean                  =  -2.5205769502932E-05
(PID.TID 0000.0001) %MON vort_a_sd                    =   7.3401356308245E-05
(PID.TID 0000.0001) %MON vort_p_mean                  =  -3.1758669695428E-05
(PID.TID 0000.0001) %MON vort_p_sd                    =   1.3125946107085E-04
(PID.TID 0000.0001) %MON surfExpan_theta_mean         =   1.0787917918493E-04
(PID.TID 0000.0001) %MON surfExpan_salt_mean          =   6.4304426110638E-06
(PID.TID 0000.0001) // =======================================================
(PID.TID 0000.0001) // End MONITOR dynamic field statistics
(PID.TID 0000.0001) // =======================================================
time,SST,SSS,fu,fv,Q,E-P,i0,i1,a,b =   6.4800E+05  5.0579E-01  3.4539E+01 -3.8067E-02 -6.0505E-02  2.6543E+02  0.0000E+00    12     1  7.5000E-01  2.5000E-01
time,fu0,fu1,fu =   6.4800E+05 -4.5368E-02 -3.5633E-02 -3.8067E-02  7.5000E-01  2.5000E-01
 cg2d: Sum(rhs),rhsMax =  -1.50443893454089E-14  1.04478985847005E+01
(PID.TID 0000.0001)                    cg2d_init_res =    8.17030629775936E-01
(PID.TID 0000.0001)                       cg2d_iters =    25
(PID.TID 0000.0001)                         cg2d_res =    4.55836145097414E-14
(PID.TID 0000.0001) // =======================================================
(PID.TID 0000.0001) // Begin MONITOR dynamic field statistics
(PID.TID 0000.0001) // =======================================================
(PID.TID 0000.0001) %MON time_tsnumber                =                    16
(PID.TID 0000.0001) %MON time_secondsf                =   6.9120000000000E+05
(PID.TID 0000.0001) %MON dynstat_eta_max              =   1.2574087867096E+00
(PID.TID 0000.0001) %MON dynstat_eta_min              =  -1.3029340674727E+00
(PID.TID 0000.0001) %MON dynstat_eta_mean             =  -2.0045873892662E-16
(PID.TID 0000.0001) %MON dynstat_eta_sd               =   3.6963058240334E-01
(PID.TID 0000.0001) %MON dynstat_eta_del2             =   2.0994885148433E-02
(PID.TID 0000.0001) %MON dynstat_uvel_max             =   1.7017960995030E-01
(PID.TID 0000.0001) %MON dynstat_uvel_min             =  -1.5000525549260E-01
(PID.TID 0000.0001) %MON dynstat_uvel_mean            =  -1.0166170296073E-02
(PID.TID 0000.0001) %MON dynstat_uvel_sd              =   1.7422645623778E-02
(PID.TID 0000.0001) %MON dynstat_uvel_del2            =   4.4555739808823E-03
(PID.TID 0000.0001) %MON dynstat_vvel_max             =   1.4856730985174E-01
(PID.TID 0000.0001) %MON dynstat_vvel_min             =  -1.3910730354061E-01
(PID.TID 0000.0001) %MON dynstat_vvel_mean            =   3.6977189160660E-03
(PID.TID 0000.0001) %MON dynstat_vvel_sd              =   1.5688019098040E-02
(PID.TID 0000.0001) %MON dynstat_vvel_del2            =   4.7063314822672E-03
(PID.TID 0000.0001) %MON dynstat_wvel_max             =   3.7674124767194E-04
(PID.TID 0000.0001) %MON dynstat_wvel_min             =  -4.8523897053727E-04
(PID.TID 0000.0001) %MON dynstat_wvel_mean            =   7.5110745349357E-22
(PID.TID 0000.0001) %MON dynstat_wvel_sd              =   4.1413499621832E-05
(PID.TID 0000.0001) %MON dynstat_wvel_del2            =   1.6220030945675E-05
(PID.TID 0000.0001) %MON dynstat_theta_max            =   2.9526691834252E+01
(PID.TID 0000.0001) %MON dynstat_theta_min            =  -1.9919559760844E+00
(PID.TID 0000.0001) %MON dynstat_theta_mean           =   3.5961365260197E+00
(PID.TID 0000.0001) %MON dynstat_theta_sd             =   4.3581146296067E+00
(PID.TID 0000.0001) %MON dynstat_theta_del2           =   1.3697242502383E-01
(PID.TID 0000.0001) %MON dynstat_salt_max             =   3.7428927415916E+01
(PID.TID 0000.0001) %MON dynstat_salt_min             =   2.9798282398952E+01
(PID.TID 0000.0001) %MON dynstat_salt_mean            =   3.4716212608059E+01
(PID.TID 0000.0001) %MON dynstat_salt_sd              =   2.9546409491794E-01
(PID.TID 0000.0001) %MON dynstat_salt_del2            =   2.5374118630717E-02
(PID.TID 0000.0001) %MON advcfl_uvel_max              =   3.6689459994497E-02
(PID.TID 0000.0001) %MON advcfl_vvel_max              =   1.4432122785504E-02
(PID.TID 0000.0001) %MON advcfl_wvel_max              =   1.7538773736066E-01
(PID.TID 0000.0001) %MON advcfl_W_hf_max              =   1.4544114860457E-01
(PID.TID 0000.0001) %MON pe_b_mean                    =   1.7483041696055E-04
(PID.TID 0000.0001) %MON ke_max                       =   1.4684231750761E-02
(PID.TID 0000.0001) %MON ke_mean                      =   3.0149044933219E-04
(PID.TID 0000.0001) %MON ke_vol                       =   1.3226782436723E+18
(PID.TID 0000.0001) %MON vort_r_min                   =  -5.5363633372215E-07
(PID.TID 0000.0001) %MON vort_r_max                   =   8.2105397589937E-07
(PID.TID 0000.0001) %MON vort_a_mean                  =  -2.5205769467977E-05
(PID.TID 0000.0001) %MON vort_a_sd                    =   7.3401317166131E-05
(PID.TID 0000.0001) %MON vort_p_mean                  =  -3.1758669651385E-05
(PID.TID 0000.0001) %MON vort_p_sd                    =   1.3125924520602E-04
(PID.TID 0000.0001) %MON surfExpan_theta_mean         =   9.4716126541033E-05
(PID.TID 0000.0001) %MON surfExpan_salt_mean          =   5.1751023997860E-06
(PID.TID 0000.0001) // =======================================================
(PID.TID 0000.0001) // End MONITOR dynamic field statistics
(PID.TID 0000.0001) // =======================================================
time,SST,SSS,fu,fv,Q,E-P,i0,i1,a,b =   6.9120E+05  5.3596E-01  3.4551E+01 -3.7904E-02 -6.0288E-02  2.6546E+02  0.0000E+00    12     1  7.6667E-01  2.3333E-01
time,fu0,fu1,fu =   6.9120E+05 -4.5368E-02 -3.5633E-02 -3.7904E-02  7.6667E-01  2.3333E-01
 cg2d: Sum(rhs),rhsMax =   7.30934410220208E-14  1.05953427007009E+01
(PID.TID 0000.0001)                    cg2d_init_res =    7.88731649397030E-01
(PID.TID 0000.0001)                       cg2d_iters =    25
(PID.TID 0000.0001)                         cg2d_res =    3.90314354211919E-14
(PID.TID 0000.0001) // =======================================================
(PID.TID 0000.0001) // Begin MONITOR dynamic field statistics
(PID.TID 0000.0001) // =======================================================
(PID.TID 0000.0001) %MON time_tsnumber                =                    17
(PID.TID 0000.0001) %MON time_secondsf                =   7.3440000000000E+05
(PID.TID 0000.0001) %MON dynstat_eta_max              =   1.2748707834715E+00
(PID.TID 0000.0001) %MON dynstat_eta_min              =  -1.2907216572369E+00
(PID.TID 0000.0001) %MON dynstat_eta_mean             =   1.0995362416612E-16
(PID.TID 0000.0001) %MON dynstat_eta_sd               =   3.7736012693036E-01
(PID.TID 0000.0001) %MON dynstat_eta_del2             =   2.0524459011232E-02
(PID.TID 0000.0001) %MON dynstat_uvel_max             =   1.7774490652468E-01
(PID.TID 0000.0001) %MON dynstat_uvel_min             =  -1.4926336333027E-01
(PID.TID 0000.0001) %MON dynstat_uvel_mean            =  -1.0201740354480E-02
(PID.TID 0000.0001) %MON dynstat_uvel_sd              =   1.8160924154696E-02
(PID.TID 0000.0001) %MON dynstat_uvel_del2            =   4.6020510499470E-03
(PID.TID 0000.0001) %MON dynstat_vvel_max             =   1.5778040583614E-01
(PID.TID 0000.0001) %MON dynstat_vvel_min             =  -1.3918944812085E-01
(PID.TID 0000.0001) %MON dynstat_vvel_mean            =   3.3734524188850E-03
(PID.TID 0000.0001) %MON dynstat_vvel_sd              =   1.5646817179546E-02
(PID.TID 0000.0001) %MON dynstat_vvel_del2            =   4.8209121689485E-03
(PID.TID 0000.0001) %MON dynstat_wvel_max             =   3.8030660221800E-04
(PID.TID 0000.0001) %MON dynstat_wvel_min             =  -4.9520204519151E-04
(PID.TID 0000.0001) %MON dynstat_wvel_mean            =   7.3874217012685E-22
(PID.TID 0000.0001) %MON dynstat_wvel_sd              =   4.1066128802612E-05
(PID.TID 0000.0001) %MON dynstat_wvel_del2            =   1.6200425333492E-05
(PID.TID 0000.0001) %MON dynstat_theta_max            =   2.9503598297218E+01
(PID.TID 0000.0001) %MON dynstat_theta_min            =  -1.9537479206931E+00
(PID.TID 0000.0001) %MON dynstat_theta_mean           =   3.5953453287437E+00
(PID.TID 0000.0001) %MON dynstat_theta_sd             =   4.3550514446624E+00
(PID.TID 0000.0001) %MON dynstat_theta_del2           =   1.3650108209919E-01
(PID.TID 0000.0001) %MON dynstat_salt_max             =   3.7427216109477E+01
(PID.TID 0000.0001) %MON dynstat_salt_min             =   2.9798974427378E+01
(PID.TID 0000.0001) %MON dynstat_salt_mean            =   3.4716176125575E+01
(PID.TID 0000.0001) %MON dynstat_salt_sd              =   2.9540165449598E-01
(PID.TID 0000.0001) %MON dynstat_salt_del2            =   2.5338743389765E-02
(PID.TID 0000.0001) %MON advcfl_uvel_max              =   3.6321893762724E-02
(PID.TID 0000.0001) %MON advcfl_vvel_max              =   1.5327101180241E-02
(PID.TID 0000.0001) %MON advcfl_wvel_max              =   1.8233824504565E-01
(PID.TID 0000.0001) %MON advcfl_W_hf_max              =   1.4646709997466E-01
(PID.TID 0000.0001) %MON pe_b_mean                    =   1.8221881533064E-04
(PID.TID 0000.0001) %MON ke_max                       =   1.5930332432758E-02
(PID.TID 0000.0001) %MON ke_mean                      =   3.1214570521328E-04
(PID.TID 0000.0001) %MON ke_vol                       =   1.3226782436723E+18
(PID.TID 0000.0001) %MON vort_r_min                   =  -5.8595818743624E-07
(PID.TID 0000.0001) %MON vort_r_max                   =   8.0862426612166E-07
(PID.TID 0000.0001) %MON vort_a_mean                  =  -2.5205769416497E-05
(PID.TID 0000.0001) %MON vort_a_sd                    =   7.3401301437848E-05
(PID.TID 0000.0001) %MON vort_p_mean                  =  -3.1758669586522E-05
(PID.TID 0000.0001) %MON vort_p_sd                    =   1.3125912904969E-04
(PID.TID 0000.0001) %MON surfExpan_theta_mean         =   8.1561370524302E-05
(PID.TID 0000.0001) %MON surfExpan_salt_mean          =   3.9638054310079E-06
(PID.TID 0000.0001) // =======================================================
(PID.TID 0000.0001) // End MONITOR dynamic field statistics
(PID.TID 0000.0001) // =======================================================
time,SST,SSS,fu,fv,Q,E-P,i0,i1,a,b =   7.3440E+05  5.6614E-01  3.4563E+01 -3.7742E-02 -6.0072E-02  2.6548E+02  0.0000E+00    12     1  7.8333E-01  2.1667E-01
time,fu0,fu1,fu =   7.3440E+05 -4.5368E-02 -3.5633E-02 -3.7742E-02  7.8333E-01  2.1667E-01
 cg2d: Sum(rhs),rhsMax =  -1.25722349197943E-13  1.05352089710679E+01
(PID.TID 0000.0001)                    cg2d_init_res =    7.78419645905451E-01
(PID.TID 0000.0001)                       cg2d_iters =    24
(PID.TID 0000.0001)                         cg2d_res =    8.31053185068751E-14
(PID.TID 0000.0001) // =======================================================
(PID.TID 0000.0001) // Begin MONITOR dynamic field statistics
(PID.TID 0000.0001) // =======================================================
(PID.TID 0000.0001) %MON time_tsnumber                =                    18
(PID.TID 0000.0001) %MON time_secondsf                =   7.7760000000000E+05
(PID.TID 0000.0001) %MON dynstat_eta_max              =   1.2682928986697E+00
(PID.TID 0000.0001) %MON dynstat_eta_min              =  -1.3239455286072E+00
(PID.TID 0000.0001) %MON dynstat_eta_mean             =   2.7444300840788E-17
(PID.TID 0000.0001) %MON dynstat_eta_sd               =   3.8315589726324E-01
(PID.TID 0000.0001) %MON dynstat_eta_del2             =   2.0036437458123E-02
(PID.TID 0000.0001) %MON dynstat_uvel_max             =   1.8463748836657E-01
(PID.TID 0000.0001) %MON dynstat_uvel_min             =  -1.4757367224193E-01
(PID.TID 0000.0001) %MON dynstat_uvel_mean            =  -1.0120072429768E-02
(PID.TID 0000.0001) %MON dynstat_uvel_sd              =   1.8811088509735E-02
(PID.TID 0000.0001) %MON dynstat_uvel_del2            =   4.7333772460619E-03
(PID.TID 0000.0001) %MON dynstat_vvel_max             =   1.6303094450925E-01
(PID.TID 0000.0001) %MON dynstat_vvel_min             =  -1.4241239671567E-01
(PID.TID 0000.0001) %MON dynstat_vvel_mean            =   3.0750086304393E-03
(PID.TID 0000.0001) %MON dynstat_vvel_sd              =   1.5639968824577E-02
(PID.TID 0000.0001) %MON dynstat_vvel_del2            =   4.9225561759344E-03
(PID.TID 0000.0001) %MON dynstat_wvel_max             =   3.8222619285881E-04
(PID.TID 0000.0001) %MON dynstat_wvel_min             =  -5.0146848627903E-04
(PID.TID 0000.0001) %MON dynstat_wvel_mean            =   1.5307496255189E-22
(PID.TID 0000.0001) %MON dynstat_wvel_sd              =   4.0586441751378E-05
(PID.TID 0000.0001) %MON dynstat_wvel_del2            =   1.6102841227670E-05
(PID.TID 0000.0001) %MON dynstat_theta_max            =   2.9473499848593E+01
(PID.TID 0000.0001) %MON dynstat_theta_min            =  -1.9379241521565E+00
(PID.TID 0000.0001) %MON dynstat_theta_mean           =   3.5946975160126E+00
(PID.TID 0000.0001) %MON dynstat_theta_sd             =   4.3523009809717E+00
(PID.TID 0000.0001) %MON dynstat_theta_del2           =   1.3609199200187E-01
(PID.TID 0000.0001) %MON dynstat_salt_max             =   3.7425735813509E+01
(PID.TID 0000.0001) %MON dynstat_salt_min             =   2.9799457938398E+01
(PID.TID 0000.0001) %MON dynstat_salt_mean            =   3.4716152148650E+01
(PID.TID 0000.0001) %MON dynstat_salt_sd              =   2.9534132501604E-01
(PID.TID 0000.0001) %MON dynstat_salt_del2            =   2.5309663384117E-02
(PID.TID 0000.0001) %MON advcfl_uvel_max              =   3.4101498370900E-02
(PID.TID 0000.0001) %MON advcfl_vvel_max              =   1.5837148908076E-02
(PID.TID 0000.0001) %MON advcfl_wvel_max              =   1.8821404242862E-01
(PID.TID 0000.0001) %MON advcfl_W_hf_max              =   1.5172406129053E-01
(PID.TID 0000.0001) %MON pe_b_mean                    =   1.8785909627397E-04
(PID.TID 0000.0001) %MON ke_max                       =   1.7090661926888E-02
(PID.TID 0000.0001) %MON ke_mean                      =   3.2135229439809E-04
(PID.TID 0000.0001) %MON ke_vol                       =   1.3226782436723E+18
(PID.TID 0000.0001) %MON vort_r_min                   =  -6.1505833352645E-07
(PID.TID 0000.0001) %MON vort_r_max                   =   7.7959667057349E-07
(PID.TID 0000.0001) %MON vort_a_mean                  =  -2.5205769353998E-05
(PID.TID 0000.0001) %MON vort_a_sd                    =   7.3401307861934E-05
(PID.TID 0000.0001) %MON vort_p_mean                  =  -3.1758669507775E-05
(PID.TID 0000.0001) %MON vort_p_sd                    =   1.3125910421033E-04
(PID.TID 0000.0001) %MON surfExpan_theta_mean         =   6.8708462905601E-05
(PID.TID 0000.0001) %MON surfExpan_salt_mean          =   2.8182208262267E-06
(PID.TID 0000.0001) // =======================================================
(PID.TID 0000.0001) // End MONITOR dynamic field statistics
(PID.TID 0000.0001) // =======================================================
time,SST,SSS,fu,fv,Q,E-P,i0,i1,a,b =   7.7760E+05  5.9632E-01  3.4574E+01 -3.7580E-02 -5.9855E-02  2.6550E+02  0.0000E+00    12     1  8.0000E-01  2.0000E-01
time,fu0,fu1,fu =   7.7760E+05 -4.5368E-02 -3.5633E-02 -3.7580E-02  8.0000E-01  2.0000E-01
 cg2d: Sum(rhs),rhsMax =   2.56050389224605E-13  1.02854226332883E+01
(PID.TID 0000.0001)                    cg2d_init_res =    7.83476918208466E-01
(PID.TID 0000.0001)                       cg2d_iters =    25
(PID.TID 0000.0001)                         cg2d_res =    2.89423808740666E-14
(PID.TID 0000.0001) // =======================================================
(PID.TID 0000.0001) // Begin MONITOR dynamic field statistics
(PID.TID 0000.0001) // =======================================================
(PID.TID 0000.0001) %MON time_tsnumber                =                    19
(PID.TID 0000.0001) %MON time_secondsf                =   8.2080000000000E+05
(PID.TID 0000.0001) %MON dynstat_eta_max              =   1.2398174595448E+00
(PID.TID 0000.0001) %MON dynstat_eta_min              =  -1.3183821531098E+00
(PID.TID 0000.0001) %MON dynstat_eta_mean             =  -1.5402446333229E-16
(PID.TID 0000.0001) %MON dynstat_eta_sd               =   3.8722680988132E-01
(PID.TID 0000.0001) %MON dynstat_eta_del2             =   1.9596424801866E-02
(PID.TID 0000.0001) %MON dynstat_uvel_max             =   1.9077797690364E-01
(PID.TID 0000.0001) %MON dynstat_uvel_min             =  -1.4695700606196E-01
(PID.TID 0000.0001) %MON dynstat_uvel_mean            =  -9.9331468999526E-03
(PID.TID 0000.0001) %MON dynstat_uvel_sd              =   1.9377113606259E-02
(PID.TID 0000.0001) %MON dynstat_uvel_del2            =   4.8477813237155E-03
(PID.TID 0000.0001) %MON dynstat_vvel_max             =   1.6383021687988E-01
(PID.TID 0000.0001) %MON dynstat_vvel_min             =  -1.4406034908282E-01
(PID.TID 0000.0001) %MON dynstat_vvel_mean            =   2.8155157715927E-03
(PID.TID 0000.0001) %MON dynstat_vvel_sd              =   1.5664007422185E-02
(PID.TID 0000.0001) %MON dynstat_vvel_del2            =   5.0117912147570E-03
(PID.TID 0000.0001) %MON dynstat_wvel_max             =   3.8248369207517E-04
(PID.TID 0000.0001) %MON dynstat_wvel_min             =  -5.0420801144492E-04
(PID.TID 0000.0001) %MON dynstat_wvel_mean            =   5.8433232143189E-22
(PID.TID 0000.0001) %MON dynstat_wvel_sd              =   3.9996481327692E-05
(PID.TID 0000.0001) %MON dynstat_wvel_del2            =   1.5933719589310E-05
(PID.TID 0000.0001) %MON dynstat_theta_max            =   2.9456764360608E+01
(PID.TID 0000.0001) %MON dynstat_theta_min            =  -1.9330911554060E+00
(PID.TID 0000.0001) %MON dynstat_theta_mean           =   3.5941850270845E+00
(PID.TID 0000.0001) %MON dynstat_theta_sd             =   4.3498818768668E+00
(PID.TID 0000.0001) %MON dynstat_theta_del2           =   1.3573619682472E-01
(PID.TID 0000.0001) %MON dynstat_salt_max             =   3.7424439547495E+01
(PID.TID 0000.0001) %MON dynstat_salt_min             =   2.9799768784671E+01
(PID.TID 0000.0001) %MON dynstat_salt_mean            =   3.4716139638948E+01
(PID.TID 0000.0001) %MON dynstat_salt_sd              =   2.9528453676790E-01
(PID.TID 0000.0001) %MON dynstat_salt_del2            =   2.5286825402053E-02
(PID.TID 0000.0001) %MON advcfl_uvel_max              =   3.0090570679102E-02
(PID.TID 0000.0001) %MON advcfl_vvel_max              =   1.5914791809489E-02
(PID.TID 0000.0001) %MON advcfl_wvel_max              =   1.8863404682771E-01
(PID.TID 0000.0001) %MON advcfl_W_hf_max              =   1.6361083703873E-01
(PID.TID 0000.0001) %MON pe_b_mean                    =   1.9187219187854E-04
(PID.TID 0000.0001) %MON ke_max                       =   1.8155266444106E-02
(PID.TID 0000.0001) %MON ke_mean                      =   3.2912115213504E-04
(PID.TID 0000.0001) %MON ke_vol                       =   1.3226782436723E+18
(PID.TID 0000.0001) %MON vort_r_min                   =  -6.4060539698544E-07
(PID.TID 0000.0001) %MON vort_r_max                   =   7.3424407101144E-07
(PID.TID 0000.0001) %MON vort_a_mean                  =  -2.5205769286434E-05
(PID.TID 0000.0001) %MON vort_a_sd                    =   7.3401334597894E-05
(PID.TID 0000.0001) %MON vort_p_mean                  =  -3.1758669422645E-05
(PID.TID 0000.0001) %MON vort_p_sd                    =   1.3125915856422E-04
(PID.TID 0000.0001) %MON surfExpan_theta_mean         =   5.6384722540766E-05
(PID.TID 0000.0001) %MON surfExpan_salt_mean          =   1.7477636172230E-06
(PID.TID 0000.0001) // =======================================================
(PID.TID 0000.0001) // End MONITOR dynamic field statistics
(PID.TID 0000.0001) // =======================================================
time,SST,SSS,fu,fv,Q,E-P,i0,i1,a,b =   8.2080E+05  6.2649E-01  3.4586E+01 -3.7418E-02 -5.9638E-02  2.6552E+02  0.0000E+00    12     1  8.1667E-01  1.8333E-01
time,fu0,fu1,fu =   8.2080E+05 -4.5368E-02 -3.5633E-02 -3.7418E-02  8.1667E-01  1.8333E-01
 cg2d: Sum(rhs),rhsMax =  -1.87834123255293E-13  9.89942675036038E+00
(PID.TID 0000.0001)                    cg2d_init_res =    8.00116478712083E-01
(PID.TID 0000.0001)                       cg2d_iters =    25
(PID.TID 0000.0001)                         cg2d_res =    2.72752492760170E-14
(PID.TID 0000.0001) // =======================================================
(PID.TID 0000.0001) // Begin MONITOR dynamic field statistics
(PID.TID 0000.0001) // =======================================================
(PID.TID 0000.0001) %MON time_tsnumber                =                    20
(PID.TID 0000.0001) %MON time_secondsf                =   8.6400000000000E+05
(PID.TID 0000.0001) %MON dynstat_eta_max              =   1.1926923736767E+00
(PID.TID 0000.0001) %MON dynstat_eta_min              =  -1.2768092052356E+00
(PID.TID 0000.0001) %MON dynstat_eta_mean             =  -5.7911037599201E-17
(PID.TID 0000.0001) %MON dynstat_eta_sd               =   3.8980464334629E-01
(PID.TID 0000.0001) %MON dynstat_eta_del2             =   1.9264984635219E-02
(PID.TID 0000.0001) %MON dynstat_uvel_max             =   1.9607684177064E-01
(PID.TID 0000.0001) %MON dynstat_uvel_min             =  -1.5362269427030E-01
(PID.TID 0000.0001) %MON dynstat_uvel_mean            =  -9.6550723604981E-03
(PID.TID 0000.0001) %MON dynstat_uvel_sd              =   1.9863128192754E-02
(PID.TID 0000.0001) %MON dynstat_uvel_del2            =   4.9480476254160E-03
(PID.TID 0000.0001) %MON dynstat_vvel_max             =   1.5990981411104E-01
(PID.TID 0000.0001) %MON dynstat_vvel_min             =  -1.4412949998585E-01
(PID.TID 0000.0001) %MON dynstat_vvel_mean            =   2.6046031151706E-03
(PID.TID 0000.0001) %MON dynstat_vvel_sd              =   1.5711596320365E-02
(PID.TID 0000.0001) %MON dynstat_vvel_del2            =   5.0886230470927E-03
(PID.TID 0000.0001) %MON dynstat_wvel_max             =   3.8105311733858E-04
(PID.TID 0000.0001) %MON dynstat_wvel_min             =  -5.0340447840984E-04
(PID.TID 0000.0001) %MON dynstat_wvel_mean            =  -2.4719675614955E-22
(PID.TID 0000.0001) %MON dynstat_wvel_sd              =   3.9318461053133E-05
(PID.TID 0000.0001) %MON dynstat_wvel_del2            =   1.5713231185711E-05
(PID.TID 0000.0001) %MON dynstat_theta_max            =   2.9453918402044E+01
(PID.TID 0000.0001) %MON dynstat_theta_min            =  -1.9299556203271E+00
(PID.TID 0000.0001) %MON dynstat_theta_mean           =   3.5937981458249E+00
(PID.TID 0000.0001) %MON dynstat_theta_sd             =   4.3478065405293E+00
(PID.TID 0000.0001) %MON dynstat_theta_del2           =   1.3543839710866E-01
(PID.TID 0000.0001) %MON dynstat_salt_max             =   3.7423271958535E+01
(PID.TID 0000.0001) %MON dynstat_salt_min             =   2.9799944615082E+01
(PID.TID 0000.0001) %MON dynstat_salt_mean            =   3.4716137532863E+01
(PID.TID 0000.0001) %MON dynstat_salt_sd              =   2.9523129000145E-01
(PID.TID 0000.0001) %MON dynstat_salt_del2            =   2.5269135722317E-02
(PID.TID 0000.0001) %MON advcfl_uvel_max              =   3.0382306374146E-02
(PID.TID 0000.0001) %MON advcfl_vvel_max              =   1.5533956118347E-02
(PID.TID 0000.0001) %MON advcfl_wvel_max              =   1.8316814029410E-01
(PID.TID 0000.0001) %MON advcfl_W_hf_max              =   1.6675217935576E-01
(PID.TID 0000.0001) %MON pe_b_mean                    =   1.9443534561874E-04
(PID.TID 0000.0001) %MON ke_max                       =   1.9119040353318E-02
(PID.TID 0000.0001) %MON ke_mean                      =   3.3546800997078E-04
(PID.TID 0000.0001) %MON ke_vol                       =   1.3226782436723E+18
(PID.TID 0000.0001) %MON vort_r_min                   =  -6.6243243101588E-07
(PID.TID 0000.0001) %MON vort_r_max                   =   6.7328482285494E-07
(PID.TID 0000.0001) %MON vort_a_mean                  =  -2.5205769219529E-05
(PID.TID 0000.0001) %MON vort_a_sd                    =   7.3401379382339E-05
(PID.TID 0000.0001) %MON vort_p_mean                  =  -3.1758669338346E-05
(PID.TID 0000.0001) %MON vort_p_sd                    =   1.3125927788491E-04
(PID.TID 0000.0001) %MON surfExpan_theta_mean         =   4.4824328736205E-05
(PID.TID 0000.0001) %MON surfExpan_salt_mean          =   7.6963892212622E-07
(PID.TID 0000.0001) // =======================================================
(PID.TID 0000.0001) // End MONITOR dynamic field statistics
(PID.TID 0000.0001) // =======================================================
time,SST,SSS,fu,fv,Q,E-P,i0,i1,a,b =   8.6400E+05  6.5667E-01  3.4598E+01 -3.7255E-02 -5.9422E-02  2.6555E+02  0.0000E+00    12     1  8.3333E-01  1.6667E-01
time,fu0,fu1,fu =   8.6400E+05 -4.5368E-02 -3.5633E-02 -3.7255E-02  8.3333E-01  1.6667E-01
 cg2d: Sum(rhs),rhsMax =   1.68857983151582E-14  1.09313661371491E+01
(PID.TID 0000.0001)                    cg2d_init_res =    7.11714636732807E-01
(PID.TID 0000.0001)                       cg2d_iters =    25
(PID.TID 0000.0001)                         cg2d_res =    3.01288783240059E-14
(PID.TID 0000.0001) // =======================================================
(PID.TID 0000.0001) // Begin MONITOR dynamic field statistics
(PID.TID 0000.0001) // =======================================================
(PID.TID 0000.0001) %MON time_tsnumber                =                    21
(PID.TID 0000.0001) %MON time_secondsf                =   9.0720000000000E+05
(PID.TID 0000.0001) %MON dynstat_eta_max              =   1.3007185096294E+00
(PID.TID 0000.0001) %MON dynstat_eta_min              =  -1.2131709566161E+00
(PID.TID 0000.0001) %MON dynstat_eta_mean             =   2.1623990561920E-17
(PID.TID 0000.0001) %MON dynstat_eta_sd               =   3.9112961077027E-01
(PID.TID 0000.0001) %MON dynstat_eta_del2             =   1.9078466434278E-02
(PID.TID 0000.0001) %MON dynstat_uvel_max             =   2.0043960022774E-01
(PID.TID 0000.0001) %MON dynstat_uvel_min             =  -1.6097227218511E-01
(PID.TID 0000.0001) %MON dynstat_uvel_mean            =  -9.3011968027934E-03
(PID.TID 0000.0001) %MON dynstat_uvel_sd              =   2.0272777107945E-02
(PID.TID 0000.0001) %MON dynstat_uvel_del2            =   5.0362132614733E-03
(PID.TID 0000.0001) %MON dynstat_vvel_max             =   1.5123383417137E-01
(PID.TID 0000.0001) %MON dynstat_vvel_min             =  -1.4339181155289E-01
(PID.TID 0000.0001) %MON dynstat_vvel_mean            =   2.4483206859906E-03
(PID.TID 0000.0001) %MON dynstat_vvel_sd              =   1.5774381648546E-02
(PID.TID 0000.0001) %MON dynstat_vvel_del2            =   5.1546200549391E-03
(PID.TID 0000.0001) %MON dynstat_wvel_max             =   3.7793539927981E-04
(PID.TID 0000.0001) %MON dynstat_wvel_min             =  -4.9896312517622E-04
(PID.TID 0000.0001) %MON dynstat_wvel_mean            =   8.0078105308828E-22
(PID.TID 0000.0001) %MON dynstat_wvel_sd              =   3.8574236764208E-05
(PID.TID 0000.0001) %MON dynstat_wvel_del2            =   1.5451793502946E-05
(PID.TID 0000.0001) %MON dynstat_theta_max            =   2.9455893679441E+01
(PID.TID 0000.0001) %MON dynstat_theta_min            =  -1.9286646828248E+00
(PID.TID 0000.0001) %MON dynstat_theta_mean           =   3.5935247539141E+00
(PID.TID 0000.0001) %MON dynstat_theta_sd             =   4.3460784535531E+00
(PID.TID 0000.0001) %MON dynstat_theta_del2           =   1.3521118259289E-01
(PID.TID 0000.0001) %MON dynstat_salt_max             =   3.7422184122342E+01
(PID.TID 0000.0001) %MON dynstat_salt_min             =   2.9800023117276E+01
(PID.TID 0000.0001) %MON dynstat_salt_mean            =   3.4716144528676E+01
(PID.TID 0000.0001) %MON dynstat_salt_sd              =   2.9518124440145E-01
(PID.TID 0000.0001) %MON dynstat_salt_del2            =   2.5255350466575E-02
(PID.TID 0000.0001) %MON advcfl_uvel_max              =   3.0395925951078E-02
(PID.TID 0000.0001) %MON advcfl_vvel_max              =   1.4691154240203E-02
(PID.TID 0000.0001) %MON advcfl_wvel_max              =   1.7166046488232E-01
(PID.TID 0000.0001) %MON advcfl_W_hf_max              =   1.6291630011001E-01
(PID.TID 0000.0001) %MON pe_b_mean                    =   1.9575938491147E-04
(PID.TID 0000.0001) %MON ke_max                       =   1.9980507976800E-02
(PID.TID 0000.0001) %MON ke_mean                      =   3.4042304712561E-04
(PID.TID 0000.0001) %MON ke_vol                       =   1.3226782436723E+18
(PID.TID 0000.0001) %MON vort_r_min                   =  -6.8055437821061E-07
(PID.TID 0000.0001) %MON vort_r_max                   =   6.0920329030775E-07
(PID.TID 0000.0001) %MON vort_a_mean                  =  -2.5205769158280E-05
(PID.TID 0000.0001) %MON vort_a_sd                    =   7.3401439680378E-05
(PID.TID 0000.0001) %MON vort_p_mean                  =  -3.1758669261174E-05
(PID.TID 0000.0001) %MON vort_p_sd                    =   1.3125944734078E-04
(PID.TID 0000.0001) %MON surfExpan_theta_mean         =   3.4216970079727E-05
(PID.TID 0000.0001) %MON surfExpan_salt_mean          =  -1.0379704414310E-07
(PID.TID 0000.0001) // =======================================================
(PID.TID 0000.0001) // End MONITOR dynamic field statistics
(PID.TID 0000.0001) // =======================================================
time,SST,SSS,fu,fv,Q,E-P,i0,i1,a,b =   9.0720E+05  6.8684E-01  3.4609E+01 -3.7093E-02 -5.9205E-02  2.6557E+02  0.0000E+00    12     1  8.5000E-01  1.5000E-01
time,fu0,fu1,fu =   9.0720E+05 -4.5368E-02 -3.5633E-02 -3.7093E-02  8.5000E-01  1.5000E-01
 cg2d: Sum(rhs),rhsMax =  -3.24879012580936E-14  1.18621214870367E+01
(PID.TID 0000.0001)                    cg2d_init_res =    6.43345618723141E-01
(PID.TID 0000.0001)                       cg2d_iters =    25
(PID.TID 0000.0001)                         cg2d_res =    3.11563516204341E-14
(PID.TID 0000.0001) // =======================================================
(PID.TID 0000.0001) // Begin MONITOR dynamic field statistics
(PID.TID 0000.0001) // =======================================================
(PID.TID 0000.0001) %MON time_tsnumber                =                    22
(PID.TID 0000.0001) %MON time_secondsf                =   9.5040000000000E+05
(PID.TID 0000.0001) %MON dynstat_eta_max              =   1.4078293745499E+00
(PID.TID 0000.0001) %MON dynstat_eta_min              =  -1.1673156706775E+00
(PID.TID 0000.0001) %MON dynstat_eta_mean             =   3.1610469820169E-17
(PID.TID 0000.0001) %MON dynstat_eta_sd               =   3.9143739584847E-01
(PID.TID 0000.0001) %MON dynstat_eta_del2             =   1.8988758508155E-02
(PID.TID 0000.0001) %MON dynstat_uvel_max             =   2.0377215656323E-01
(PID.TID 0000.0001) %MON dynstat_uvel_min             =  -1.7728210359539E-01
(PID.TID 0000.0001) %MON dynstat_uvel_mean            =  -8.8873330336610E-03
(PID.TID 0000.0001) %MON dynstat_uvel_sd              =   2.0608892774574E-02
(PID.TID 0000.0001) %MON dynstat_uvel_del2            =   5.1117710598902E-03
(PID.TID 0000.0001) %MON dynstat_vvel_max             =   1.4205322943483E-01
(PID.TID 0000.0001) %MON dynstat_vvel_min             =  -1.4861279369212E-01
(PID.TID 0000.0001) %MON dynstat_vvel_mean            =   2.3492856136306E-03
(PID.TID 0000.0001) %MON dynstat_vvel_sd              =   1.5845232597734E-02
(PID.TID 0000.0001) %MON dynstat_vvel_del2            =   5.2089699067388E-03
(PID.TID 0000.0001) %MON dynstat_wvel_max             =   3.7317467071624E-04
(PID.TID 0000.0001) %MON dynstat_wvel_min             =  -4.9079444957330E-04
(PID.TID 0000.0001) %MON dynstat_wvel_mean            =   7.6883658331516E-24
(PID.TID 0000.0001) %MON dynstat_wvel_sd              =   3.7785391694696E-05
(PID.TID 0000.0001) %MON dynstat_wvel_del2            =   1.5156511255571E-05
(PID.TID 0000.0001) %MON dynstat_theta_max            =   2.9458020708810E+01
(PID.TID 0000.0001) %MON dynstat_theta_min            =  -1.9289742580846E+00
(PID.TID 0000.0001) %MON dynstat_theta_mean           =   3.5933513419520E+00
(PID.TID 0000.0001) %MON dynstat_theta_sd             =   4.3446935643599E+00
(PID.TID 0000.0001) %MON dynstat_theta_del2           =   1.3504376401742E-01
(PID.TID 0000.0001) %MON dynstat_salt_max             =   3.7421141649594E+01
(PID.TID 0000.0001) %MON dynstat_salt_min             =   2.9800047031404E+01
(PID.TID 0000.0001) %MON dynstat_salt_mean            =   3.4716159223186E+01
(PID.TID 0000.0001) %MON dynstat_salt_sd              =   2.9513361137074E-01
(PID.TID 0000.0001) %MON dynstat_salt_del2            =   2.5243136763226E-02
(PID.TID 0000.0001) %MON advcfl_uvel_max              =   3.0352356244515E-02
(PID.TID 0000.0001) %MON advcfl_vvel_max              =   1.4436541175861E-02
(PID.TID 0000.0001) %MON advcfl_wvel_max              =   1.5423964548551E-01
(PID.TID 0000.0001) %MON advcfl_W_hf_max              =   1.4371090916642E-01
(PID.TID 0000.0001) %MON pe_b_mean                    =   1.9606759744466E-04
(PID.TID 0000.0001) %MON ke_max                       =   2.0740359807311E-02
(PID.TID 0000.0001) %MON ke_mean                      =   3.4403833954356E-04
(PID.TID 0000.0001) %MON ke_vol                       =   1.3226782436723E+18
(PID.TID 0000.0001) %MON vort_r_min                   =  -6.9516817015281E-07
(PID.TID 0000.0001) %MON vort_r_max                   =   6.2511341284631E-07
(PID.TID 0000.0001) %MON vort_a_mean                  =  -2.5205769106625E-05
(PID.TID 0000.0001) %MON vort_a_sd                    =   7.3401512819589E-05
(PID.TID 0000.0001) %MON vort_p_mean                  =  -3.1758669196090E-05
(PID.TID 0000.0001) %MON vort_p_sd                    =   1.3125965271680E-04
(PID.TID 0000.0001) %MON surfExpan_theta_mean         =   2.4721301805572E-05
(PID.TID 0000.0001) %MON surfExpan_salt_mean          =  -8.6046349792294E-07
(PID.TID 0000.0001) // =======================================================
(PID.TID 0000.0001) // End MONITOR dynamic field statistics
(PID.TID 0000.0001) // =======================================================
time,SST,SSS,fu,fv,Q,E-P,i0,i1,a,b =   9.5040E+05  7.1702E-01  3.4621E+01 -3.6931E-02 -5.8989E-02  2.6559E+02  0.0000E+00    12     1  8.6667E-01  1.3333E-01
time,fu0,fu1,fu =   9.5040E+05 -4.5368E-02 -3.5633E-02 -3.6931E-02  8.6667E-01  1.3333E-01
 cg2d: Sum(rhs),rhsMax =  -1.20193785480005E-13  1.26581340407866E+01
(PID.TID 0000.0001)                    cg2d_init_res =    5.90613158976092E-01
(PID.TID 0000.0001)                       cg2d_iters =    25
(PID.TID 0000.0001)                         cg2d_res =    3.12549652984699E-14
(PID.TID 0000.0001) // =======================================================
(PID.TID 0000.0001) // Begin MONITOR dynamic field statistics
(PID.TID 0000.0001) // =======================================================
(PID.TID 0000.0001) %MON time_tsnumber                =                    23
(PID.TID 0000.0001) %MON time_secondsf                =   9.9360000000000E+05
(PID.TID 0000.0001) %MON dynstat_eta_max              =   1.4990152776623E+00
(PID.TID 0000.0001) %MON dynstat_eta_min              =  -1.1212182155122E+00
(PID.TID 0000.0001) %MON dynstat_eta_mean             =  -1.8444513130965E-17
(PID.TID 0000.0001) %MON dynstat_eta_sd               =   3.9094961237352E-01
(PID.TID 0000.0001) %MON dynstat_eta_del2             =   1.8869901398331E-02
(PID.TID 0000.0001) %MON dynstat_uvel_max             =   2.0637728200726E-01
(PID.TID 0000.0001) %MON dynstat_uvel_min             =  -1.9118188969749E-01
(PID.TID 0000.0001) %MON dynstat_uvel_mean            =  -8.4291254932358E-03
(PID.TID 0000.0001) %MON dynstat_uvel_sd              =   2.0873480374409E-02
(PID.TID 0000.0001) %MON dynstat_uvel_del2            =   5.1778071865873E-03
(PID.TID 0000.0001) %MON dynstat_vvel_max             =   1.4153738571463E-01
(PID.TID 0000.0001) %MON dynstat_vvel_min             =  -1.5038273323489E-01
(PID.TID 0000.0001) %MON dynstat_vvel_mean            =   2.3069933104856E-03
(PID.TID 0000.0001) %MON dynstat_vvel_sd              =   1.5919505504673E-02
(PID.TID 0000.0001) %MON dynstat_vvel_del2            =   5.2514907254786E-03
(PID.TID 0000.0001) %MON dynstat_wvel_max             =   3.8153212309876E-04
(PID.TID 0000.0001) %MON dynstat_wvel_min             =  -4.7891208328464E-04
(PID.TID 0000.0001) %MON dynstat_wvel_mean            =   9.7436428636924E-22
(PID.TID 0000.0001) %MON dynstat_wvel_sd              =   3.6974332744281E-05
(PID.TID 0000.0001) %MON dynstat_wvel_del2            =   1.4843029795559E-05
(PID.TID 0000.0001) %MON dynstat_theta_max            =   2.9460230036024E+01
(PID.TID 0000.0001) %MON dynstat_theta_min            =  -1.9295861558759E+00
(PID.TID 0000.0001) %MON dynstat_theta_mean           =   3.5932632805719E+00
(PID.TID 0000.0001) %MON dynstat_theta_sd             =   4.3436396280870E+00
(PID.TID 0000.0001) %MON dynstat_theta_del2           =   1.3491647828628E-01
(PID.TID 0000.0001) %MON dynstat_salt_max             =   3.7420124825868E+01
(PID.TID 0000.0001) %MON dynstat_salt_min             =   2.9800078859256E+01
(PID.TID 0000.0001) %MON dynstat_salt_mean            =   3.4716180095352E+01
(PID.TID 0000.0001) %MON dynstat_salt_sd              =   2.9508745916584E-01
(PID.TID 0000.0001) %MON dynstat_salt_del2            =   2.5231982584952E-02
(PID.TID 0000.0001) %MON advcfl_uvel_max              =   3.0999693103353E-02
(PID.TID 0000.0001) %MON advcfl_vvel_max              =   1.4608476609233E-02
(PID.TID 0000.0001) %MON advcfl_wvel_max              =   1.6401153753984E-01
(PID.TID 0000.0001) %MON advcfl_W_hf_max              =   1.5007859980908E-01
(PID.TID 0000.0001) %MON pe_b_mean                    =   1.9557924888214E-04
(PID.TID 0000.0001) %MON ke_max                       =   2.1399888106425E-02
(PID.TID 0000.0001) %MON ke_mean                      =   3.4639076486832E-04
(PID.TID 0000.0001) %MON ke_vol                       =   1.3226782436723E+18
(PID.TID 0000.0001) %MON vort_r_min                   =  -7.0752765572966E-07
(PID.TID 0000.0001) %MON vort_r_max                   =   6.4154203776403E-07
(PID.TID 0000.0001) %MON vort_a_mean                  =  -2.5205769067268E-05
(PID.TID 0000.0001) %MON vort_a_sd                    =   7.3401596100347E-05
(PID.TID 0000.0001) %MON vort_p_mean                  =  -3.1758669146502E-05
(PID.TID 0000.0001) %MON vort_p_sd                    =   1.3125988124086E-04
(PID.TID 0000.0001) %MON surfExpan_theta_mean         =   1.6457168678840E-05
(PID.TID 0000.0001) %MON surfExpan_salt_mean          =  -1.4890559185083E-06
(PID.TID 0000.0001) // =======================================================
(PID.TID 0000.0001) // End MONITOR dynamic field statistics
(PID.TID 0000.0001) // =======================================================
time,SST,SSS,fu,fv,Q,E-P,i0,i1,a,b =   9.9360E+05  7.4719E-01  3.4633E+01 -3.6769E-02 -5.8772E-02  2.6561E+02  0.0000E+00    12     1  8.8333E-01  1.1667E-01
time,fu0,fu1,fu =   9.9360E+05 -4.5368E-02 -3.5633E-02 -3.6769E-02  8.8333E-01  1.1667E-01
 cg2d: Sum(rhs),rhsMax =  -1.53037305050674E-13  1.32897167539240E+01
(PID.TID 0000.0001)                    cg2d_init_res =    5.51067929995801E-01
(PID.TID 0000.0001)                       cg2d_iters =    25
(PID.TID 0000.0001)                         cg2d_res =    3.06771641111350E-14
(PID.TID 0000.0001) // =======================================================
(PID.TID 0000.0001) // Begin MONITOR dynamic field statistics
(PID.TID 0000.0001) // =======================================================
(PID.TID 0000.0001) %MON time_tsnumber                =                    24
(PID.TID 0000.0001) %MON time_secondsf                =   1.0368000000000E+06
(PID.TID 0000.0001) %MON dynstat_eta_max              =   1.5708985675427E+00
(PID.TID 0000.0001) %MON dynstat_eta_min              =  -1.1420600709738E+00
(PID.TID 0000.0001) %MON dynstat_eta_mean             =  -2.3557617872624E-16
(PID.TID 0000.0001) %MON dynstat_eta_sd               =   3.8986952543787E-01
(PID.TID 0000.0001) %MON dynstat_eta_del2             =   1.8730850068113E-02
(PID.TID 0000.0001) %MON dynstat_uvel_max             =   2.0822867382964E-01
(PID.TID 0000.0001) %MON dynstat_uvel_min             =  -2.0212690731173E-01
(PID.TID 0000.0001) %MON dynstat_uvel_mean            =  -7.9415536729830E-03
(PID.TID 0000.0001) %MON dynstat_uvel_sd              =   2.1067943809299E-02
(PID.TID 0000.0001) %MON dynstat_uvel_del2            =   5.2395415986967E-03
(PID.TID 0000.0001) %MON dynstat_vvel_max             =   1.4447396810703E-01
(PID.TID 0000.0001) %MON dynstat_vvel_min             =  -1.5048455793039E-01
(PID.TID 0000.0001) %MON dynstat_vvel_mean            =   2.3182388214356E-03
(PID.TID 0000.0001) %MON dynstat_vvel_sd              =   1.5995239297478E-02
(PID.TID 0000.0001) %MON dynstat_vvel_del2            =   5.2845741478184E-03
(PID.TID 0000.0001) %MON dynstat_wvel_max             =   3.9328218379732E-04
(PID.TID 0000.0001) %MON dynstat_wvel_min             =  -4.6349295288988E-04
(PID.TID 0000.0001) %MON dynstat_wvel_mean            =  -4.1843128996605E-22
(PID.TID 0000.0001) %MON dynstat_wvel_sd              =   3.6165375614547E-05
(PID.TID 0000.0001) %MON dynstat_wvel_del2            =   1.4520925812386E-05
(PID.TID 0000.0001) %MON dynstat_theta_max            =   2.9462359186079E+01
(PID.TID 0000.0001) %MON dynstat_theta_min            =  -1.9307204158468E+00
(PID.TID 0000.0001) %MON dynstat_theta_mean           =   3.5932453865518E+00
(PID.TID 0000.0001) %MON dynstat_theta_sd             =   4.3428970364025E+00
(PID.TID 0000.0001) %MON dynstat_theta_del2           =   1.3481120188385E-01
(PID.TID 0000.0001) %MON dynstat_salt_max             =   3.7419116058254E+01
(PID.TID 0000.0001) %MON dynstat_salt_min             =   2.9800132740454E+01
(PID.TID 0000.0001) %MON dynstat_salt_mean            =   3.4716205534766E+01
(PID.TID 0000.0001) %MON dynstat_salt_sd              =   2.9504176555455E-01
(PID.TID 0000.0001) %MON dynstat_salt_del2            =   2.5222385351003E-02
(PID.TID 0000.0001) %MON advcfl_uvel_max              =   3.1482617410519E-02
(PID.TID 0000.0001) %MON advcfl_vvel_max              =   1.4618368061864E-02
(PID.TID 0000.0001) %MON advcfl_wvel_max              =   1.7731657790526E-01
(PID.TID 0000.0001) %MON advcfl_W_hf_max              =   1.5433994965541E-01
(PID.TID 0000.0001) %MON pe_b_mean                    =   1.9450007764293E-04
(PID.TID 0000.0001) %MON ke_max                       =   2.1959509471650E-02
(PID.TID 0000.0001) %MON ke_mean                      =   3.4757836203701E-04
(PID.TID 0000.0001) %MON ke_vol                       =   1.3226782436723E+18
(PID.TID 0000.0001) %MON vort_r_min                   =  -7.2335580278092E-07
(PID.TID 0000.0001) %MON vort_r_max                   =   6.5322092737311E-07
(PID.TID 0000.0001) %MON vort_a_mean                  =  -2.5205769041693E-05
(PID.TID 0000.0001) %MON vort_a_sd                    =   7.3401686882811E-05
(PID.TID 0000.0001) %MON vort_p_mean                  =  -3.1758669114278E-05
(PID.TID 0000.0001) %MON vort_p_sd                    =   1.3126012209992E-04
(PID.TID 0000.0001) %MON surfExpan_theta_mean         =   9.4955398188854E-06
(PID.TID 0000.0001) %MON surfExpan_salt_mean          =  -1.9813451238123E-06
(PID.TID 0000.0001) // =======================================================
(PID.TID 0000.0001) // End MONITOR dynamic field statistics
(PID.TID 0000.0001) // =======================================================
time,SST,SSS,fu,fv,Q,E-P,i0,i1,a,b =   1.0368E+06  7.7737E-01  3.4644E+01 -3.6606E-02 -5.8556E-02  2.6564E+02  0.0000E+00    12     1  9.0000E-01  1.0000E-01
time,fu0,fu1,fu =   1.0368E+06 -4.5368E-02 -3.5633E-02 -3.6606E-02  9.0000E-01  1.0000E-01
 cg2d: Sum(rhs),rhsMax =  -1.10467190950203E-14  1.37323322818560E+01
(PID.TID 0000.0001)                    cg2d_init_res =    5.23673434138102E-01
(PID.TID 0000.0001)                       cg2d_iters =    25
(PID.TID 0000.0001)                         cg2d_res =    2.95860240899400E-14
(PID.TID 0000.0001) // =======================================================
(PID.TID 0000.0001) // Begin MONITOR dynamic field statistics
(PID.TID 0000.0001) // =======================================================
(PID.TID 0000.0001) %MON time_tsnumber                =                    25
(PID.TID 0000.0001) %MON time_secondsf                =   1.0800000000000E+06
(PID.TID 0000.0001) %MON dynstat_eta_max              =   1.6206954058685E+00
(PID.TID 0000.0001) %MON dynstat_eta_min              =  -1.1413636868575E+00
(PID.TID 0000.0001) %MON dynstat_eta_mean             =   1.9008455296020E-16
(PID.TID 0000.0001) %MON dynstat_eta_sd               =   3.8838351294209E-01
(PID.TID 0000.0001) %MON dynstat_eta_del2             =   1.8609369991353E-02
(PID.TID 0000.0001) %MON dynstat_uvel_max             =   2.0883203560144E-01
(PID.TID 0000.0001) %MON dynstat_uvel_min             =  -2.0967224332405E-01
(PID.TID 0000.0001) %MON dynstat_uvel_mean            =  -7.4385662817169E-03
(PID.TID 0000.0001) %MON dynstat_uvel_sd              =   2.1193451250455E-02
(PID.TID 0000.0001) %MON dynstat_uvel_del2            =   5.2964260017738E-03
(PID.TID 0000.0001) %MON dynstat_vvel_max             =   1.4775321100893E-01
(PID.TID 0000.0001) %MON dynstat_vvel_min             =  -1.4919193594687E-01
(PID.TID 0000.0001) %MON dynstat_vvel_mean            =   2.3775904302288E-03
(PID.TID 0000.0001) %MON dynstat_vvel_sd              =   1.6072455890788E-02
(PID.TID 0000.0001) %MON dynstat_vvel_del2            =   5.3061392655676E-03
(PID.TID 0000.0001) %MON dynstat_wvel_max             =   4.0210226205799E-04
(PID.TID 0000.0001) %MON dynstat_wvel_min             =  -4.4488448689927E-04
(PID.TID 0000.0001) %MON dynstat_wvel_mean            =   6.0882635254806E-22
(PID.TID 0000.0001) %MON dynstat_wvel_sd              =   3.5384656454498E-05
(PID.TID 0000.0001) %MON dynstat_wvel_del2            =   1.4199683668442E-05
(PID.TID 0000.0001) %MON dynstat_theta_max            =   2.9464237239705E+01
(PID.TID 0000.0001) %MON dynstat_theta_min            =  -1.9322978537791E+00
(PID.TID 0000.0001) %MON dynstat_theta_mean           =   3.5932824760544E+00
(PID.TID 0000.0001) %MON dynstat_theta_sd             =   4.3424412058311E+00
(PID.TID 0000.0001) %MON dynstat_theta_del2           =   1.3471626248344E-01
(PID.TID 0000.0001) %MON dynstat_salt_max             =   3.7418113630226E+01
(PID.TID 0000.0001) %MON dynstat_salt_min             =   2.9800230596692E+01
(PID.TID 0000.0001) %MON dynstat_salt_mean            =   3.4716233899214E+01
(PID.TID 0000.0001) %MON dynstat_salt_sd              =   2.9499567917020E-01
(PID.TID 0000.0001) %MON dynstat_salt_del2            =   2.5209762795303E-02
(PID.TID 0000.0001) %MON advcfl_uvel_max              =   3.1802366867445E-02
(PID.TID 0000.0001) %MON advcfl_vvel_max              =   1.4492800201747E-02
(PID.TID 0000.0001) %MON advcfl_wvel_max              =   1.8416253719886E-01
(PID.TID 0000.0001) %MON advcfl_W_hf_max              =   1.4682937667470E-01
(PID.TID 0000.0001) %MON pe_b_mean                    =   1.9302020450724E-04
(PID.TID 0000.0001) %MON ke_max                       =   2.2417568908666E-02
(PID.TID 0000.0001) %MON ke_mean                      =   3.4771029790796E-04
(PID.TID 0000.0001) %MON ke_vol                       =   1.3226782436723E+18
(PID.TID 0000.0001) %MON vort_r_min                   =  -7.3511384828761E-07
(PID.TID 0000.0001) %MON vort_r_max                   =   6.5969945194183E-07
(PID.TID 0000.0001) %MON vort_a_mean                  =  -2.5205769029988E-05
(PID.TID 0000.0001) %MON vort_a_sd                    =   7.3401782654489E-05
(PID.TID 0000.0001) %MON vort_p_mean                  =  -3.1758669099530E-05
(PID.TID 0000.0001) %MON vort_p_sd                    =   1.3126036666231E-04
(PID.TID 0000.0001) %MON surfExpan_theta_mean         =   3.8664120813625E-06
(PID.TID 0000.0001) %MON surfExpan_salt_mean          =  -2.3304504586248E-06
(PID.TID 0000.0001) // =======================================================
(PID.TID 0000.0001) // End MONITOR dynamic field statistics
(PID.TID 0000.0001) // =======================================================
time,SST,SSS,fu,fv,Q,E-P,i0,i1,a,b =   1.0800E+06  8.0755E-01  3.4656E+01 -3.6444E-02 -5.8339E-02  2.6566E+02  0.0000E+00    12     1  9.1667E-01  8.3333E-02
time,fu0,fu1,fu =   1.0800E+06 -4.5368E-02 -3.5633E-02 -3.6444E-02  9.1667E-01  8.3333E-02
 cg2d: Sum(rhs),rhsMax =  -2.26867136188247E-14  1.39675819284081E+01
(PID.TID 0000.0001)                    cg2d_init_res =    5.08227433933433E-01
(PID.TID 0000.0001)                       cg2d_iters =    25
(PID.TID 0000.0001)                         cg2d_res =    2.81794939856721E-14
(PID.TID 0000.0001) // =======================================================
(PID.TID 0000.0001) // Begin MONITOR dynamic field statistics
(PID.TID 0000.0001) // =======================================================
(PID.TID 0000.0001) %MON time_tsnumber                =                    26
(PID.TID 0000.0001) %MON time_secondsf                =   1.1232000000000E+06
(PID.TID 0000.0001) %MON dynstat_eta_max              =   1.6463284431990E+00
(PID.TID 0000.0001) %MON dynstat_eta_min              =  -1.1206677451156E+00
(PID.TID 0000.0001) %MON dynstat_eta_mean             =   5.3209753040141E-18
(PID.TID 0000.0001) %MON dynstat_eta_sd               =   3.8666659417104E-01
(PID.TID 0000.0001) %MON dynstat_eta_del2             =   1.8470175636623E-02
(PID.TID 0000.0001) %MON dynstat_uvel_max             =   2.0815515592071E-01
(PID.TID 0000.0001) %MON dynstat_uvel_min             =  -2.1349129929461E-01
(PID.TID 0000.0001) %MON dynstat_uvel_mean            =  -6.9328149164283E-03
(PID.TID 0000.0001) %MON dynstat_uvel_sd              =   2.1251344396843E-02
(PID.TID 0000.0001) %MON dynstat_uvel_del2            =   5.3509090608236E-03
(PID.TID 0000.0001) %MON dynstat_vvel_max             =   1.5049912710246E-01
(PID.TID 0000.0001) %MON dynstat_vvel_min             =  -1.4552409825956E-01
(PID.TID 0000.0001) %MON dynstat_vvel_mean            =   2.4778898312417E-03
(PID.TID 0000.0001) %MON dynstat_vvel_sd              =   1.6151929282758E-02
(PID.TID 0000.0001) %MON dynstat_vvel_del2            =   5.3184971730838E-03
(PID.TID 0000.0001) %MON dynstat_wvel_max             =   4.0802413429947E-04
(PID.TID 0000.0001) %MON dynstat_wvel_min             =  -4.2357649911528E-04
(PID.TID 0000.0001) %MON dynstat_wvel_mean            =  -4.1647500451719E-22
(PID.TID 0000.0001) %MON dynstat_wvel_sd              =   3.4658047869782E-05
(PID.TID 0000.0001) %MON dynstat_wvel_del2            =   1.3887631563042E-05
(PID.TID 0000.0001) %MON dynstat_theta_max            =   2.9465724824278E+01
(PID.TID 0000.0001) %MON dynstat_theta_min            =  -1.9341599506103E+00
(PID.TID 0000.0001) %MON dynstat_theta_mean           =   3.5933598034039E+00
(PID.TID 0000.0001) %MON dynstat_theta_sd             =   4.3422426840942E+00
(PID.TID 0000.0001) %MON dynstat_theta_del2           =   1.3463338110740E-01
(PID.TID 0000.0001) %MON dynstat_salt_max             =   3.7417117798704E+01
(PID.TID 0000.0001) %MON dynstat_salt_min             =   2.9800388647919E+01
(PID.TID 0000.0001) %MON dynstat_salt_mean            =   3.4716263528149E+01
(PID.TID 0000.0001) %MON dynstat_salt_sd              =   2.9494817734451E-01
(PID.TID 0000.0001) %MON dynstat_salt_del2            =   2.5195484922999E-02
(PID.TID 0000.0001) %MON advcfl_uvel_max              =   3.1978595732874E-02
(PID.TID 0000.0001) %MON advcfl_vvel_max              =   1.4619783340100E-02
(PID.TID 0000.0001) %MON advcfl_wvel_max              =   1.8404550411347E-01
(PID.TID 0000.0001) %MON advcfl_W_hf_max              =   1.3949091985865E-01
(PID.TID 0000.0001) %MON pe_b_mean                    =   1.9131741592440E-04
(PID.TID 0000.0001) %MON ke_max                       =   2.2769619111018E-02
(PID.TID 0000.0001) %MON ke_mean                      =   3.4689292333034E-04
(PID.TID 0000.0001) %MON ke_vol                       =   1.3226782436723E+18
(PID.TID 0000.0001) %MON vort_r_min                   =  -7.4277714754334E-07
(PID.TID 0000.0001) %MON vort_r_max                   =   6.6110125444257E-07
(PID.TID 0000.0001) %MON vort_a_mean                  =  -2.5205769031339E-05
(PID.TID 0000.0001) %MON vort_a_sd                    =   7.3401881074921E-05
(PID.TID 0000.0001) %MON vort_p_mean                  =  -3.1758669101232E-05
(PID.TID 0000.0001) %MON vort_p_sd                    =   1.3126060843246E-04
(PID.TID 0000.0001) %MON surfExpan_theta_mean         =  -4.5301828473710E-07
(PID.TID 0000.0001) %MON surfExpan_salt_mean          =  -2.5343641361313E-06
(PID.TID 0000.0001) // =======================================================
(PID.TID 0000.0001) // End MONITOR dynamic field statistics
(PID.TID 0000.0001) // =======================================================
time,SST,SSS,fu,fv,Q,E-P,i0,i1,a,b =   1.1232E+06  8.3772E-01  3.4668E+01 -3.6282E-02 -5.8123E-02  2.6568E+02  0.0000E+00    12     1  9.3333E-01  6.6667E-02
time,fu0,fu1,fu =   1.1232E+06 -4.5368E-02 -3.5633E-02 -3.6282E-02  9.3333E-01  6.6667E-02
 cg2d: Sum(rhs),rhsMax =  -1.13759696107607E-13  1.39838979558621E+01
(PID.TID 0000.0001)                    cg2d_init_res =    5.04783515425260E-01
(PID.TID 0000.0001)                       cg2d_iters =    25
(PID.TID 0000.0001)                         cg2d_res =    2.64033599990980E-14
(PID.TID 0000.0001) // =======================================================
(PID.TID 0000.0001) // Begin MONITOR dynamic field statistics
(PID.TID 0000.0001) // =======================================================
(PID.TID 0000.0001) %MON time_tsnumber                =                    27
(PID.TID 0000.0001) %MON time_secondsf                =   1.1664000000000E+06
(PID.TID 0000.0001) %MON dynstat_eta_max              =   1.6465067281820E+00
(PID.TID 0000.0001) %MON dynstat_eta_min              =  -1.0883650997086E+00
(PID.TID 0000.0001) %MON dynstat_eta_mean             =   4.9744679395524E-17
(PID.TID 0000.0001) %MON dynstat_eta_sd               =   3.8488864733136E-01
(PID.TID 0000.0001) %MON dynstat_eta_del2             =   1.8405070709333E-02
(PID.TID 0000.0001) %MON dynstat_uvel_max             =   2.0617640727275E-01
(PID.TID 0000.0001) %MON dynstat_uvel_min             =  -2.1339074537679E-01
(PID.TID 0000.0001) %MON dynstat_uvel_mean            =  -6.4354727783904E-03
(PID.TID 0000.0001) %MON dynstat_uvel_sd              =   2.1243524001216E-02
(PID.TID 0000.0001) %MON dynstat_uvel_del2            =   5.4055599824564E-03
(PID.TID 0000.0001) %MON dynstat_vvel_max             =   1.5274790929191E-01
(PID.TID 0000.0001) %MON dynstat_vvel_min             =  -1.5198853466021E-01
(PID.TID 0000.0001) %MON dynstat_vvel_mean            =   2.6107465332605E-03
(PID.TID 0000.0001) %MON dynstat_vvel_sd              =   1.6233872781923E-02
(PID.TID 0000.0001) %MON dynstat_vvel_del2            =   5.3256380097242E-03
(PID.TID 0000.0001) %MON dynstat_wvel_max             =   4.1112432989886E-04
(PID.TID 0000.0001) %MON dynstat_wvel_min             =  -4.0014498993005E-04
(PID.TID 0000.0001) %MON dynstat_wvel_mean            =  -7.4941142876161E-22
(PID.TID 0000.0001) %MON dynstat_wvel_sd              =   3.4007572541391E-05
(PID.TID 0000.0001) %MON dynstat_wvel_del2            =   1.3591120362536E-05
(PID.TID 0000.0001) %MON dynstat_theta_max            =   2.9466748056344E+01
(PID.TID 0000.0001) %MON dynstat_theta_min            =  -1.9361456388947E+00
(PID.TID 0000.0001) %MON dynstat_theta_mean           =   3.5934636722944E+00
(PID.TID 0000.0001) %MON dynstat_theta_sd             =   4.3422685432119E+00
(PID.TID 0000.0001) %MON dynstat_theta_del2           =   1.3458410858142E-01
(PID.TID 0000.0001) %MON dynstat_salt_max             =   3.7416127650906E+01
(PID.TID 0000.0001) %MON dynstat_salt_min             =   2.9800617235652E+01
(PID.TID 0000.0001) %MON dynstat_salt_mean            =   3.4716292831848E+01
(PID.TID 0000.0001) %MON dynstat_salt_sd              =   2.9489921070069E-01
(PID.TID 0000.0001) %MON dynstat_salt_del2            =   2.5181936681200E-02
(PID.TID 0000.0001) %MON advcfl_uvel_max              =   3.2537600362537E-02
(PID.TID 0000.0001) %MON advcfl_vvel_max              =   1.4838234496740E-02
(PID.TID 0000.0001) %MON advcfl_wvel_max              =   1.7681962917377E-01
(PID.TID 0000.0001) %MON advcfl_W_hf_max              =   1.3360308122521E-01
(PID.TID 0000.0001) %MON pe_b_mean                    =   1.8956205269128E-04
(PID.TID 0000.0001) %MON ke_max                       =   2.3008258196260E-02
(PID.TID 0000.0001) %MON ke_mean                      =   3.4521629946200E-04
(PID.TID 0000.0001) %MON ke_vol                       =   1.3226782436723E+18
(PID.TID 0000.0001) %MON vort_r_min                   =  -7.4637696847385E-07
(PID.TID 0000.0001) %MON vort_r_max                   =   6.5774105282630E-07
(PID.TID 0000.0001) %MON vort_a_mean                  =  -2.5205769044021E-05
(PID.TID 0000.0001) %MON vort_a_sd                    =   7.3401980011717E-05
(PID.TID 0000.0001) %MON vort_p_mean                  =  -3.1758669117211E-05
(PID.TID 0000.0001) %MON vort_p_sd                    =   1.3126084284811E-04
(PID.TID 0000.0001) %MON surfExpan_theta_mean         =  -3.5234650119406E-06
(PID.TID 0000.0001) %MON surfExpan_salt_mean          =  -2.5948623091405E-06
(PID.TID 0000.0001) // =======================================================
(PID.TID 0000.0001) // End MONITOR dynamic field statistics
(PID.TID 0000.0001) // =======================================================
time,SST,SSS,fu,fv,Q,E-P,i0,i1,a,b =   1.1664E+06  8.6790E-01  3.4679E+01 -3.6120E-02 -5.7906E-02  2.6570E+02  0.0000E+00    12     1  9.5000E-01  5.0000E-02
time,fu0,fu1,fu =   1.1664E+06 -4.5368E-02 -3.5633E-02 -3.6120E-02  9.5000E-01  5.0000E-02
 cg2d: Sum(rhs),rhsMax =  -1.77930586930941E-13  1.37769726896515E+01
(PID.TID 0000.0001)                    cg2d_init_res =    5.13229986045803E-01
(PID.TID 0000.0001)                       cg2d_iters =    25
(PID.TID 0000.0001)                         cg2d_res =    2.48009227473891E-14
(PID.TID 0000.0001) // =======================================================
(PID.TID 0000.0001) // Begin MONITOR dynamic field statistics
(PID.TID 0000.0001) // =======================================================
(PID.TID 0000.0001) %MON time_tsnumber                =                    28
(PID.TID 0000.0001) %MON time_secondsf                =   1.2096000000000E+06
(PID.TID 0000.0001) %MON dynstat_eta_max              =   1.6207762372710E+00
(PID.TID 0000.0001) %MON dynstat_eta_min              =  -1.0716304381963E+00
(PID.TID 0000.0001) %MON dynstat_eta_mean             =   5.9926902607068E-17
(PID.TID 0000.0001) %MON dynstat_eta_sd               =   3.8321745639867E-01
(PID.TID 0000.0001) %MON dynstat_eta_del2             =   1.8434666009934E-02
(PID.TID 0000.0001) %MON dynstat_uvel_max             =   2.0288551311032E-01
(PID.TID 0000.0001) %MON dynstat_uvel_min             =  -2.0932104397370E-01
(PID.TID 0000.0001) %MON dynstat_uvel_mean            =  -5.9561176516739E-03
(PID.TID 0000.0001) %MON dynstat_uvel_sd              =   2.1172759645404E-02
(PID.TID 0000.0001) %MON dynstat_uvel_del2            =   5.4576896502571E-03
(PID.TID 0000.0001) %MON dynstat_vvel_max             =   1.5452798913649E-01
(PID.TID 0000.0001) %MON dynstat_vvel_min             =  -1.5624929106539E-01
(PID.TID 0000.0001) %MON dynstat_vvel_mean            =   2.7670125547361E-03
(PID.TID 0000.0001) %MON dynstat_vvel_sd              =   1.6316972310608E-02
(PID.TID 0000.0001) %MON dynstat_vvel_del2            =   5.3297259765474E-03
(PID.TID 0000.0001) %MON dynstat_wvel_max             =   4.1150469509678E-04
(PID.TID 0000.0001) %MON dynstat_wvel_min             =  -3.8130180177458E-04
(PID.TID 0000.0001) %MON dynstat_wvel_mean            =   3.4448641927911E-22
(PID.TID 0000.0001) %MON dynstat_wvel_sd              =   3.3447600229913E-05
(PID.TID 0000.0001) %MON dynstat_wvel_del2            =   1.3318697552995E-05
(PID.TID 0000.0001) %MON dynstat_theta_max            =   2.9467326687655E+01
(PID.TID 0000.0001) %MON dynstat_theta_min            =  -1.9381039348422E+00
(PID.TID 0000.0001) %MON dynstat_theta_mean           =   3.5935817836927E+00
(PID.TID 0000.0001) %MON dynstat_theta_sd             =   4.3424824342358E+00
(PID.TID 0000.0001) %MON dynstat_theta_del2           =   1.3453426390627E-01
(PID.TID 0000.0001) %MON dynstat_salt_max             =   3.7415140317190E+01
(PID.TID 0000.0001) %MON dynstat_salt_min             =   2.9800920878196E+01
(PID.TID 0000.0001) %MON dynstat_salt_mean            =   3.4716320334259E+01
(PID.TID 0000.0001) %MON dynstat_salt_sd              =   2.9484822228099E-01
(PID.TID 0000.0001) %MON dynstat_salt_del2            =   2.5166223172201E-02
(PID.TID 0000.0001) %MON advcfl_uvel_max              =   3.2975306580106E-02
(PID.TID 0000.0001) %MON advcfl_vvel_max              =   1.5178365658328E-02
(PID.TID 0000.0001) %MON advcfl_wvel_max              =   1.6269552793706E-01
(PID.TID 0000.0001) %MON advcfl_W_hf_max              =   1.2241617357447E-01
(PID.TID 0000.0001) %MON pe_b_mean                    =   1.8791946529151E-04
(PID.TID 0000.0001) %MON ke_max                       =   2.3247892103245E-02
(PID.TID 0000.0001) %MON ke_mean                      =   3.4274567553455E-04
(PID.TID 0000.0001) %MON ke_vol                       =   1.3226782436723E+18
(PID.TID 0000.0001) %MON vort_r_min                   =  -7.4599695995286E-07
(PID.TID 0000.0001) %MON vort_r_max                   =   6.5008180198503E-07
(PID.TID 0000.0001) %MON vort_a_mean                  =  -2.5205769065622E-05
(PID.TID 0000.0001) %MON vort_a_sd                    =   7.3402077564145E-05
(PID.TID 0000.0001) %MON vort_p_mean                  =  -3.1758669144428E-05
(PID.TID 0000.0001) %MON vort_p_sd                    =   1.3126106695632E-04
(PID.TID 0000.0001) %MON surfExpan_theta_mean         =  -5.4497179726852E-06
(PID.TID 0000.0001) %MON surfExpan_salt_mean          =  -2.5197570980850E-06
(PID.TID 0000.0001) // =======================================================
(PID.TID 0000.0001) // End MONITOR dynamic field statistics
(PID.TID 0000.0001) // =======================================================
time,SST,SSS,fu,fv,Q,E-P,i0,i1,a,b =   1.2096E+06  8.9807E-01  3.4691E+01 -3.5957E-02 -5.7690E-02  2.6573E+02  0.0000E+00    12     1  9.6667E-01  3.3333E-02
time,fu0,fu1,fu =   1.2096E+06 -4.5368E-02 -3.5633E-02 -3.5957E-02  9.6667E-01  3.3333E-02
 cg2d: Sum(rhs),rhsMax =  -1.72670905351779E-13  1.33499348746286E+01
(PID.TID 0000.0001)                    cg2d_init_res =    5.33178261873931E-01
(PID.TID 0000.0001)                       cg2d_iters =    25
(PID.TID 0000.0001)                         cg2d_res =    2.27729876144464E-14
(PID.TID 0000.0001) // =======================================================
(PID.TID 0000.0001) // Begin MONITOR dynamic field statistics
(PID.TID 0000.0001) // =======================================================
(PID.TID 0000.0001) %MON time_tsnumber                =                    29
(PID.TID 0000.0001) %MON time_secondsf                =   1.2528000000000E+06
(PID.TID 0000.0001) %MON dynstat_eta_max              =   1.5695414855597E+00
(PID.TID 0000.0001) %MON dynstat_eta_min              =  -1.0437245747176E+00
(PID.TID 0000.0001) %MON dynstat_eta_mean             =   1.9630465371769E-16
(PID.TID 0000.0001) %MON dynstat_eta_sd               =   3.8181575235804E-01
(PID.TID 0000.0001) %MON dynstat_eta_del2             =   1.8569577723913E-02
(PID.TID 0000.0001) %MON dynstat_uvel_max             =   2.0085688591859E-01
(PID.TID 0000.0001) %MON dynstat_uvel_min             =  -2.0138156960586E-01
(PID.TID 0000.0001) %MON dynstat_uvel_mean            =  -5.5026681170358E-03
(PID.TID 0000.0001) %MON dynstat_uvel_sd              =   2.1042919384984E-02
(PID.TID 0000.0001) %MON dynstat_uvel_del2            =   5.5071486679169E-03
(PID.TID 0000.0001) %MON dynstat_vvel_max             =   1.5586027397771E-01
(PID.TID 0000.0001) %MON dynstat_vvel_min             =  -1.5680971858313E-01
(PID.TID 0000.0001) %MON dynstat_vvel_mean            =   2.9372201644591E-03
(PID.TID 0000.0001) %MON dynstat_vvel_sd              =   1.6398017440470E-02
(PID.TID 0000.0001) %MON dynstat_vvel_del2            =   5.3286012017590E-03
(PID.TID 0000.0001) %MON dynstat_wvel_max             =   4.0927790979214E-04
(PID.TID 0000.0001) %MON dynstat_wvel_min             =  -3.8286251584374E-04
(PID.TID 0000.0001) %MON dynstat_wvel_mean            =   1.6295900851677E-22
(PID.TID 0000.0001) %MON dynstat_wvel_sd              =   3.2982511593445E-05
(PID.TID 0000.0001) %MON dynstat_wvel_del2            =   1.3080992745866E-05
(PID.TID 0000.0001) %MON dynstat_theta_max            =   2.9467594229784E+01
(PID.TID 0000.0001) %MON dynstat_theta_min            =  -1.9399036732686E+00
(PID.TID 0000.0001) %MON dynstat_theta_mean           =   3.5937035143532E+00
(PID.TID 0000.0001) %MON dynstat_theta_sd             =   4.3428473152121E+00
(PID.TID 0000.0001) %MON dynstat_theta_del2           =   1.3451323374484E-01
(PID.TID 0000.0001) %MON dynstat_salt_max             =   3.7414149526651E+01
(PID.TID 0000.0001) %MON dynstat_salt_min             =   2.9801298581780E+01
(PID.TID 0000.0001) %MON dynstat_salt_mean            =   3.4716344742145E+01
(PID.TID 0000.0001) %MON dynstat_salt_sd              =   2.9479461358034E-01
(PID.TID 0000.0001) %MON dynstat_salt_del2            =   2.5158647824739E-02
(PID.TID 0000.0001) %MON advcfl_uvel_max              =   3.3297472214850E-02
(PID.TID 0000.0001) %MON advcfl_vvel_max              =   1.5232806697588E-02
(PID.TID 0000.0001) %MON advcfl_wvel_max              =   1.4916691465796E-01
(PID.TID 0000.0001) %MON advcfl_W_hf_max              =   1.0851048942744E-01
(PID.TID 0000.0001) %MON pe_b_mean                    =   1.8654726403407E-04
(PID.TID 0000.0001) %MON ke_max                       =   2.3661899794921E-02
(PID.TID 0000.0001) %MON ke_mean                      =   3.3952103433252E-04
(PID.TID 0000.0001) %MON ke_vol                       =   1.3226782436723E+18
(PID.TID 0000.0001) %MON vort_r_min                   =  -7.4176954364702E-07
(PID.TID 0000.0001) %MON vort_r_max                   =   6.3869069819731E-07
(PID.TID 0000.0001) %MON vort_a_mean                  =  -2.5205769093297E-05
(PID.TID 0000.0001) %MON vort_a_sd                    =   7.3402172078934E-05
(PID.TID 0000.0001) %MON vort_p_mean                  =  -3.1758669179297E-05
(PID.TID 0000.0001) %MON vort_p_sd                    =   1.3126127903042E-04
(PID.TID 0000.0001) %MON surfExpan_theta_mean         =  -6.3617595424258E-06
(PID.TID 0000.0001) %MON surfExpan_salt_mean          =  -2.3219128170808E-06
(PID.TID 0000.0001) // =======================================================
(PID.TID 0000.0001) // End MONITOR dynamic field statistics
(PID.TID 0000.0001) // =======================================================
time,SST,SSS,fu,fv,Q,E-P,i0,i1,a,b =   1.2528E+06  9.2825E-01  3.4703E+01 -3.5795E-02 -5.7473E-02  2.6575E+02  0.0000E+00    12     1  9.8333E-01  1.6667E-02
time,fu0,fu1,fu =   1.2528E+06 -4.5368E-02 -3.5633E-02 -3.5795E-02  9.8333E-01  1.6667E-02
 cg2d: Sum(rhs),rhsMax =  -1.26607058170691E-13  1.27132009593928E+01
(PID.TID 0000.0001)                    cg2d_init_res =    5.64189980792448E-01
(PID.TID 0000.0001)                       cg2d_iters =    24
(PID.TID 0000.0001)                         cg2d_res =    9.36737521315293E-14
(PID.TID 0000.0001) // =======================================================
(PID.TID 0000.0001) // Begin MONITOR dynamic field statistics
(PID.TID 0000.0001) // =======================================================
(PID.TID 0000.0001) %MON time_tsnumber                =                    30
(PID.TID 0000.0001) %MON time_secondsf                =   1.2960000000000E+06
(PID.TID 0000.0001) %MON dynstat_eta_max              =   1.4940497976039E+00
(PID.TID 0000.0001) %MON dynstat_eta_min              =  -1.0072652147623E+00
(PID.TID 0000.0001) %MON dynstat_eta_mean             =   2.2945433212454E-16
(PID.TID 0000.0001) %MON dynstat_eta_sd               =   3.8083179017222E-01
(PID.TID 0000.0001) %MON dynstat_eta_del2             =   1.8748225941333E-02
(PID.TID 0000.0001) %MON dynstat_uvel_max             =   2.0053636071984E-01
(PID.TID 0000.0001) %MON dynstat_uvel_min             =  -1.9628260016724E-01
(PID.TID 0000.0001) %MON dynstat_uvel_mean            =  -5.0813543150013E-03
(PID.TID 0000.0001) %MON dynstat_uvel_sd              =   2.0859112447491E-02
(PID.TID 0000.0001) %MON dynstat_uvel_del2            =   5.5509650869540E-03
(PID.TID 0000.0001) %MON dynstat_vvel_max             =   1.5676103376013E-01
(PID.TID 0000.0001) %MON dynstat_vvel_min             =  -1.5375089503699E-01
(PID.TID 0000.0001) %MON dynstat_vvel_mean            =   3.1119677166078E-03
(PID.TID 0000.0001) %MON dynstat_vvel_sd              =   1.6472159876609E-02
(PID.TID 0000.0001) %MON dynstat_vvel_del2            =   5.3233680411614E-03
(PID.TID 0000.0001) %MON dynstat_wvel_max             =   4.0456017831413E-04
(PID.TID 0000.0001) %MON dynstat_wvel_min             =  -3.8294699087067E-04
(PID.TID 0000.0001) %MON dynstat_wvel_mean            =   3.5604302211875E-22
(PID.TID 0000.0001) %MON dynstat_wvel_sd              =   3.2606679222421E-05
(PID.TID 0000.0001) %MON dynstat_wvel_del2            =   1.2890106913713E-05
(PID.TID 0000.0001) %MON dynstat_theta_max            =   2.9467802278048E+01
(PID.TID 0000.0001) %MON dynstat_theta_min            =  -1.9414390864637E+00
(PID.TID 0000.0001) %MON dynstat_theta_mean           =   3.5938200272010E+00
(PID.TID 0000.0001) %MON dynstat_theta_sd             =   4.3433283427947E+00
(PID.TID 0000.0001) %MON dynstat_theta_del2           =   1.3445010047580E-01
(PID.TID 0000.0001) %MON dynstat_salt_max             =   3.7413145850162E+01
(PID.TID 0000.0001) %MON dynstat_salt_min             =   2.9801744376518E+01
(PID.TID 0000.0001) %MON dynstat_salt_mean            =   3.4716364986335E+01
(PID.TID 0000.0001) %MON dynstat_salt_sd              =   2.9473929272005E-01
(PID.TID 0000.0001) %MON dynstat_salt_del2            =   2.5138892683598E-02
(PID.TID 0000.0001) %MON advcfl_uvel_max              =   3.3511190082704E-02
(PID.TID 0000.0001) %MON advcfl_vvel_max              =   1.5228077357438E-02
(PID.TID 0000.0001) %MON advcfl_wvel_max              =   1.4929202530722E-01
(PID.TID 0000.0001) %MON advcfl_W_hf_max              =   1.0895871978231E-01
(PID.TID 0000.0001) %MON pe_b_mean                    =   1.8558701587345E-04
(PID.TID 0000.0001) %MON ke_max                       =   2.4046245607187E-02
(PID.TID 0000.0001) %MON ke_mean                      =   3.3556475191506E-04
(PID.TID 0000.0001) %MON ke_vol                       =   1.3226782436723E+18
(PID.TID 0000.0001) %MON vort_r_min                   =  -7.4539942976678E-07
(PID.TID 0000.0001) %MON vort_r_max                   =   6.3202724237373E-07
(PID.TID 0000.0001) %MON vort_a_mean                  =  -2.5205769124029E-05
(PID.TID 0000.0001) %MON vort_a_sd                    =   7.3402262161803E-05
(PID.TID 0000.0001) %MON vort_p_mean                  =  -3.1758669218019E-05
(PID.TID 0000.0001) %MON vort_p_sd                    =   1.3126147821671E-04
(PID.TID 0000.0001) %MON surfExpan_theta_mean         =  -6.4003967581364E-06
(PID.TID 0000.0001) %MON surfExpan_salt_mean          =  -2.0171594103344E-06
(PID.TID 0000.0001) // =======================================================
(PID.TID 0000.0001) // End MONITOR dynamic field statistics
(PID.TID 0000.0001) // =======================================================
 S/R EXTERNAL_FIELDS_LOAD: Reading new data  1296000. 30
(PID.TID 0000.0001)  MDSREADFIELD: opening global file: trenberth_taux.bin
(PID.TID 0000.0001)  MDSREADFIELD: opening global file: trenberth_taux.bin
(PID.TID 0000.0001)  MDSREADFIELD: opening global file: trenberth_tauy.bin
(PID.TID 0000.0001)  MDSREADFIELD: opening global file: trenberth_tauy.bin
(PID.TID 0000.0001)  MDSREADFIELD: opening global file: ncep_qnet.bin
(PID.TID 0000.0001)  MDSREADFIELD: opening global file: ncep_qnet.bin
(PID.TID 0000.0001)  MDSREADFIELD: opening global file: lev_sst.bin
(PID.TID 0000.0001)  MDSREADFIELD: opening global file: lev_sst.bin
(PID.TID 0000.0001)  MDSREADFIELD: opening global file: lev_sss.bin
(PID.TID 0000.0001)  MDSREADFIELD: opening global file: lev_sss.bin
time,SST,SSS,fu,fv,Q,E-P,i0,i1,a,b =   1.2960E+06  9.5843E-01  3.4715E+01 -3.5633E-02 -5.7257E-02  2.6577E+02  0.0000E+00     1     2  0.0000E+00  1.0000E+00
time,fu0,fu1,fu =   1.2960E+06 -3.5633E-02 -1.4435E-02 -3.5633E-02  0.0000E+00  1.0000E+00
 cg2d: Sum(rhs),rhsMax =  -2.22384610726323E-13  1.18840510745400E+01
(PID.TID 0000.0001)                    cg2d_init_res =    6.06247041073483E-01
(PID.TID 0000.0001)                       cg2d_iters =    24
(PID.TID 0000.0001)                         cg2d_res =    8.38527754378191E-14
(PID.TID 0000.0001) // =======================================================
(PID.TID 0000.0001) // Begin MONITOR dynamic field statistics
(PID.TID 0000.0001) // =======================================================
(PID.TID 0000.0001) %MON time_tsnumber                =                    31
(PID.TID 0000.0001) %MON time_secondsf                =   1.3392000000000E+06
(PID.TID 0000.0001) %MON dynstat_eta_max              =   1.3963430480120E+00
(PID.TID 0000.0001) %MON dynstat_eta_min              =  -1.0227279698547E+00
(PID.TID 0000.0001) %MON dynstat_eta_mean             =  -4.6474531797647E-17
(PID.TID 0000.0001) %MON dynstat_eta_sd               =   3.8038545745769E-01
(PID.TID 0000.0001) %MON dynstat_eta_del2             =   1.8860414440000E-02
(PID.TID 0000.0001) %MON dynstat_uvel_max             =   1.9899663146427E-01
(PID.TID 0000.0001) %MON dynstat_uvel_min             =  -1.9763373116982E-01
(PID.TID 0000.0001) %MON dynstat_uvel_mean            =  -4.6967236742948E-03
(PID.TID 0000.0001) %MON dynstat_uvel_sd              =   2.0627743996402E-02
(PID.TID 0000.0001) %MON dynstat_uvel_del2            =   5.5905320606194E-03
(PID.TID 0000.0001) %MON dynstat_vvel_max             =   1.5724576877057E-01
(PID.TID 0000.0001) %MON dynstat_vvel_min             =  -1.5016750250344E-01
(PID.TID 0000.0001) %MON dynstat_vvel_mean            =   3.2822723525223E-03
(PID.TID 0000.0001) %MON dynstat_vvel_sd              =   1.6533654627579E-02
(PID.TID 0000.0001) %MON dynstat_vvel_del2            =   5.3145684932368E-03
(PID.TID 0000.0001) %MON dynstat_wvel_max             =   3.9746869251300E-04
(PID.TID 0000.0001) %MON dynstat_wvel_min             =  -3.8146983395955E-04
(PID.TID 0000.0001) %MON dynstat_wvel_mean            =  -3.1841522412212E-23
(PID.TID 0000.0001) %MON dynstat_wvel_sd              =   3.2306616938859E-05
(PID.TID 0000.0001) %MON dynstat_wvel_del2            =   1.2740827210736E-05
(PID.TID 0000.0001) %MON dynstat_theta_max            =   2.9478435653198E+01
(PID.TID 0000.0001) %MON dynstat_theta_min            =  -1.9426309958873E+00
(PID.TID 0000.0001) %MON dynstat_theta_mean           =   3.5939243517722E+00
(PID.TID 0000.0001) %MON dynstat_theta_sd             =   4.3438876319016E+00
(PID.TID 0000.0001) %MON dynstat_theta_del2           =   1.3436833184124E-01
(PID.TID 0000.0001) %MON dynstat_salt_max             =   3.7412116938815E+01
(PID.TID 0000.0001) %MON dynstat_salt_min             =   2.9802248043314E+01
(PID.TID 0000.0001) %MON dynstat_salt_mean            =   3.4716380246826E+01
(PID.TID 0000.0001) %MON dynstat_salt_sd              =   2.9468029912695E-01
(PID.TID 0000.0001) %MON dynstat_salt_del2            =   2.5126432346950E-02
(PID.TID 0000.0001) %MON advcfl_uvel_max              =   3.3624495926768E-02
(PID.TID 0000.0001) %MON advcfl_vvel_max              =   1.5275165476595E-02
(PID.TID 0000.0001) %MON advcfl_wvel_max              =   1.5530141651596E-01
(PID.TID 0000.0001) %MON advcfl_W_hf_max              =   1.1373106057490E-01
(PID.TID 0000.0001) %MON pe_b_mean                    =   1.8515225691434E-04
(PID.TID 0000.0001) %MON ke_max                       =   2.4265227891704E-02
(PID.TID 0000.0001) %MON ke_mean                      =   3.3089533900321E-04
(PID.TID 0000.0001) %MON ke_vol                       =   1.3226782436723E+18
(PID.TID 0000.0001) %MON vort_r_min                   =  -7.5103953035621E-07
(PID.TID 0000.0001) %MON vort_r_max                   =   6.2899413116455E-07
(PID.TID 0000.0001) %MON vort_a_mean                  =  -2.5205769154847E-05
(PID.TID 0000.0001) %MON vort_a_sd                    =   7.3402346685130E-05
(PID.TID 0000.0001) %MON vort_p_mean                  =  -3.1758669256849E-05
(PID.TID 0000.0001) %MON vort_p_sd                    =   1.3126166415481E-04
(PID.TID 0000.0001) %MON surfExpan_theta_mean         =  -5.7298043769633E-06
(PID.TID 0000.0001) %MON surfExpan_salt_mean          =  -1.6280480456775E-06
(PID.TID 0000.0001) // =======================================================
(PID.TID 0000.0001) // End MONITOR dynamic field statistics
(PID.TID 0000.0001) // =======================================================
time,SST,SSS,fu,fv,Q,E-P,i0,i1,a,b =   1.3392E+06  9.3359E-01  3.4710E+01 -3.5280E-02 -5.6596E-02  2.6535E+02  0.0000E+00     1     2  1.6667E-02  9.8333E-01
time,fu0,fu1,fu =   1.3392E+06 -3.5633E-02 -1.4435E-02 -3.5280E-02  1.6667E-02  9.8333E-01
 cg2d: Sum(rhs),rhsMax =  -1.73680514414798E-14  1.08860124058253E+01
(PID.TID 0000.0001)                    cg2d_init_res =    6.60365284790026E-01
(PID.TID 0000.0001)                       cg2d_iters =    24
(PID.TID 0000.0001)                         cg2d_res =    6.71487733305287E-14
(PID.TID 0000.0001) // =======================================================
(PID.TID 0000.0001) // Begin MONITOR dynamic field statistics
(PID.TID 0000.0001) // =======================================================
(PID.TID 0000.0001) %MON time_tsnumber                =                    32
(PID.TID 0000.0001) %MON time_secondsf                =   1.3824000000000E+06
(PID.TID 0000.0001) %MON dynstat_eta_max              =   1.2791861149173E+00
(PID.TID 0000.0001) %MON dynstat_eta_min              =  -1.0353471815953E+00
(PID.TID 0000.0001) %MON dynstat_eta_mean             =   2.4594374975464E-16
(PID.TID 0000.0001) %MON dynstat_eta_sd               =   3.8055395519865E-01
(PID.TID 0000.0001) %MON dynstat_eta_del2             =   1.8925315097360E-02
(PID.TID 0000.0001) %MON dynstat_uvel_max             =   2.0044650985549E-01
(PID.TID 0000.0001) %MON dynstat_uvel_min             =  -1.9842985625327E-01
(PID.TID 0000.0001) %MON dynstat_uvel_mean            =  -4.3516603460479E-03
(PID.TID 0000.0001) %MON dynstat_uvel_sd              =   2.0356270411190E-02
(PID.TID 0000.0001) %MON dynstat_uvel_del2            =   5.6255439005475E-03
(PID.TID 0000.0001) %MON dynstat_vvel_max             =   1.6191516587266E-01
(PID.TID 0000.0001) %MON dynstat_vvel_min             =  -1.5272444792296E-01
(PID.TID 0000.0001) %MON dynstat_vvel_mean            =   3.4397948785838E-03
(PID.TID 0000.0001) %MON dynstat_vvel_sd              =   1.6576922383257E-02
(PID.TID 0000.0001) %MON dynstat_vvel_del2            =   5.3030329964830E-03
(PID.TID 0000.0001) %MON dynstat_wvel_max             =   3.8812766642439E-04
(PID.TID 0000.0001) %MON dynstat_wvel_min             =  -3.7838363211057E-04
(PID.TID 0000.0001) %MON dynstat_wvel_mean            =   6.6109825023888E-22
(PID.TID 0000.0001) %MON dynstat_wvel_sd              =   3.2065036411329E-05
(PID.TID 0000.0001) %MON dynstat_wvel_del2            =   1.2632347199903E-05
(PID.TID 0000.0001) %MON dynstat_theta_max            =   2.9493556533591E+01
(PID.TID 0000.0001) %MON dynstat_theta_min            =  -1.9434246936875E+00
(PID.TID 0000.0001) %MON dynstat_theta_mean           =   3.5940108996394E+00
(PID.TID 0000.0001) %MON dynstat_theta_sd             =   4.3444932128187E+00
(PID.TID 0000.0001) %MON dynstat_theta_del2           =   1.3431212520083E-01
(PID.TID 0000.0001) %MON dynstat_salt_max             =   3.7411008972568E+01
(PID.TID 0000.0001) %MON dynstat_salt_min             =   2.9802776370019E+01
(PID.TID 0000.0001) %MON dynstat_salt_mean            =   3.4716389995364E+01
(PID.TID 0000.0001) %MON dynstat_salt_sd              =   2.9461996887967E-01
(PID.TID 0000.0001) %MON dynstat_salt_del2            =   2.5105978189608E-02
(PID.TID 0000.0001) %MON advcfl_uvel_max              =   3.3646211159003E-02
(PID.TID 0000.0001) %MON advcfl_vvel_max              =   1.5728759961000E-02
(PID.TID 0000.0001) %MON advcfl_wvel_max              =   1.6870598365638E-01
(PID.TID 0000.0001) %MON advcfl_W_hf_max              =   1.2084120013303E-01
(PID.TID 0000.0001) %MON pe_b_mean                    =   1.8531632547258E-04
(PID.TID 0000.0001) %MON ke_max                       =   2.4297092052786E-02
(PID.TID 0000.0001) %MON ke_mean                      =   3.2554064365999E-04
(PID.TID 0000.0001) %MON ke_vol                       =   1.3226782436723E+18
(PID.TID 0000.0001) %MON vort_r_min                   =  -7.5752127227839E-07
(PID.TID 0000.0001) %MON vort_r_max                   =   6.2717441153192E-07
(PID.TID 0000.0001) %MON vort_a_mean                  =  -2.5205769182830E-05
(PID.TID 0000.0001) %MON vort_a_sd                    =   7.3402424792821E-05
(PID.TID 0000.0001) %MON vort_p_mean                  =  -3.1758669292107E-05
(PID.TID 0000.0001) %MON vort_p_sd                    =   1.3126183683315E-04
(PID.TID 0000.0001) %MON surfExpan_theta_mean         =  -4.4950915792217E-06
(PID.TID 0000.0001) %MON surfExpan_salt_mean          =  -1.1766351340861E-06
(PID.TID 0000.0001) // =======================================================
(PID.TID 0000.0001) // End MONITOR dynamic field statistics
(PID.TID 0000.0001) // =======================================================
time,SST,SSS,fu,fv,Q,E-P,i0,i1,a,b =   1.3824E+06  9.0875E-01  3.4705E+01 -3.4926E-02 -5.5936E-02  2.6493E+02  0.0000E+00     1     2  3.3333E-02  9.6667E-01
time,fu0,fu1,fu =   1.3824E+06 -3.5633E-02 -1.4435E-02 -3.4926E-02  3.3333E-02  9.6667E-01
 cg2d: Sum(rhs),rhsMax =   1.86815840574894E-13  1.02664651151063E+01
(PID.TID 0000.0001)                    cg2d_init_res =    6.92575903428200E-01
(PID.TID 0000.0001)                       cg2d_iters =    25
(PID.TID 0000.0001)                         cg2d_res =    2.80468169809757E-14
(PID.TID 0000.0001) // =======================================================
(PID.TID 0000.0001) // Begin MONITOR dynamic field statistics
(PID.TID 0000.0001) // =======================================================
(PID.TID 0000.0001) %MON time_tsnumber                =                    33
(PID.TID 0000.0001) %MON time_secondsf                =   1.4256000000000E+06
(PID.TID 0000.0001) %MON dynstat_eta_max              =   1.1484866565891E+00
(PID.TID 0000.0001) %MON dynstat_eta_min              =  -1.0463105006175E+00
(PID.TID 0000.0001) %MON dynstat_eta_mean             =  -1.0465180877660E-16
(PID.TID 0000.0001) %MON dynstat_eta_sd               =   3.8136145130604E-01
(PID.TID 0000.0001) %MON dynstat_eta_del2             =   1.8936608674718E-02
(PID.TID 0000.0001) %MON dynstat_uvel_max             =   2.1092493137663E-01
(PID.TID 0000.0001) %MON dynstat_uvel_min             =  -1.9869789719613E-01
(PID.TID 0000.0001) %MON dynstat_uvel_mean            =  -4.0475024159138E-03
(PID.TID 0000.0001) %MON dynstat_uvel_sd              =   2.0053461570605E-02
(PID.TID 0000.0001) %MON dynstat_uvel_del2            =   5.6568824787171E-03
(PID.TID 0000.0001) %MON dynstat_vvel_max             =   1.7344439326053E-01
(PID.TID 0000.0001) %MON dynstat_vvel_min             =  -1.5346165326443E-01
(PID.TID 0000.0001) %MON dynstat_vvel_mean            =   3.5771978128447E-03
(PID.TID 0000.0001) %MON dynstat_vvel_sd              =   1.6597173868315E-02
(PID.TID 0000.0001) %MON dynstat_vvel_del2            =   5.2897363774208E-03
(PID.TID 0000.0001) %MON dynstat_wvel_max             =   3.7667328698370E-04
(PID.TID 0000.0001) %MON dynstat_wvel_min             =  -3.7369067764556E-04
(PID.TID 0000.0001) %MON dynstat_wvel_mean            =   3.3339599147762E-22
(PID.TID 0000.0001) %MON dynstat_wvel_sd              =   3.1864681366107E-05
(PID.TID 0000.0001) %MON dynstat_wvel_del2            =   1.2549908877791E-05
(PID.TID 0000.0001) %MON dynstat_theta_max            =   2.9507682278021E+01
(PID.TID 0000.0001) %MON dynstat_theta_min            =  -1.9437849901020E+00
(PID.TID 0000.0001) %MON dynstat_theta_mean           =   3.5940763570851E+00
(PID.TID 0000.0001) %MON dynstat_theta_sd             =   4.3451118174726E+00
(PID.TID 0000.0001) %MON dynstat_theta_del2           =   1.3422604216598E-01
(PID.TID 0000.0001) %MON dynstat_salt_max             =   3.7409827509194E+01
(PID.TID 0000.0001) %MON dynstat_salt_min             =   2.9803318704629E+01
(PID.TID 0000.0001) %MON dynstat_salt_mean            =   3.4716394001310E+01
(PID.TID 0000.0001) %MON dynstat_salt_sd              =   2.9455737714619E-01
(PID.TID 0000.0001) %MON dynstat_salt_del2            =   2.5084123306222E-02
(PID.TID 0000.0001) %MON advcfl_uvel_max              =   3.3585870170288E-02
(PID.TID 0000.0001) %MON advcfl_vvel_max              =   1.6848731948443E-02
(PID.TID 0000.0001) %MON advcfl_wvel_max              =   1.9182479405186E-01
(PID.TID 0000.0001) %MON advcfl_W_hf_max              =   1.3680846122804E-01
(PID.TID 0000.0001) %MON pe_b_mean                    =   1.8610360397566E-04
(PID.TID 0000.0001) %MON ke_max                       =   2.4129089538868E-02
(PID.TID 0000.0001) %MON ke_mean                      =   3.1955528810881E-04
(PID.TID 0000.0001) %MON ke_vol                       =   1.3226782436723E+18
(PID.TID 0000.0001) %MON vort_r_min                   =  -7.6484975486102E-07
(PID.TID 0000.0001) %MON vort_r_max                   =   6.2686969616680E-07
(PID.TID 0000.0001) %MON vort_a_mean                  =  -2.5205769205704E-05
(PID.TID 0000.0001) %MON vort_a_sd                    =   7.3402495896958E-05
(PID.TID 0000.0001) %MON vort_p_mean                  =  -3.1758669320927E-05
(PID.TID 0000.0001) %MON vort_p_sd                    =   1.3126199637890E-04
(PID.TID 0000.0001) %MON surfExpan_theta_mean         =  -2.8501954469307E-06
(PID.TID 0000.0001) %MON surfExpan_salt_mean          =  -6.8872051389431E-07
(PID.TID 0000.0001) // =======================================================
(PID.TID 0000.0001) // End MONITOR dynamic field statistics
(PID.TID 0000.0001) // =======================================================
time,SST,SSS,fu,fv,Q,E-P,i0,i1,a,b =   1.4256E+06  8.8391E-01  3.4700E+01 -3.4573E-02 -5.5276E-02  2.6451E+02  0.0000E+00     1     2  5.0000E-02  9.5000E-01
time,fu0,fu1,fu =   1.4256E+06 -3.5633E-02 -1.4435E-02 -3.4573E-02  5.0000E-02  9.5000E-01
 cg2d: Sum(rhs),rhsMax =  -2.73038536224846E-13  1.03997402805384E+01
(PID.TID 0000.0001)                    cg2d_init_res =    6.69987645975851E-01
(PID.TID 0000.0001)                       cg2d_iters =    25
(PID.TID 0000.0001)                         cg2d_res =    3.21851602574780E-14
(PID.TID 0000.0001) // =======================================================
(PID.TID 0000.0001) // Begin MONITOR dynamic field statistics
(PID.TID 0000.0001) // =======================================================
(PID.TID 0000.0001) %MON time_tsnumber                =                    34
(PID.TID 0000.0001) %MON time_secondsf                =   1.4688000000000E+06
(PID.TID 0000.0001) %MON dynstat_eta_max              =   1.1625651140901E+00
(PID.TID 0000.0001) %MON dynstat_eta_min              =  -1.0540201383260E+00
(PID.TID 0000.0001) %MON dynstat_eta_mean             =   1.6734591640829E-16
(PID.TID 0000.0001) %MON dynstat_eta_sd               =   3.8277630200136E-01
(PID.TID 0000.0001) %MON dynstat_eta_del2             =   1.8952852592103E-02
(PID.TID 0000.0001) %MON dynstat_uvel_max             =   2.1891295823226E-01
(PID.TID 0000.0001) %MON dynstat_uvel_min             =  -1.9846638422053E-01
(PID.TID 0000.0001) %MON dynstat_uvel_mean            =  -3.7841104425227E-03
(PID.TID 0000.0001) %MON dynstat_uvel_sd              =   1.9728881727118E-02
(PID.TID 0000.0001) %MON dynstat_uvel_del2            =   5.6839581936746E-03
(PID.TID 0000.0001) %MON dynstat_vvel_max             =   1.8352459346812E-01
(PID.TID 0000.0001) %MON dynstat_vvel_min             =  -1.5255276281033E-01
(PID.TID 0000.0001) %MON dynstat_vvel_mean            =   3.6881863578716E-03
(PID.TID 0000.0001) %MON dynstat_vvel_sd              =   1.6591177080901E-02
(PID.TID 0000.0001) %MON dynstat_vvel_del2            =   5.2769217967508E-03
(PID.TID 0000.0001) %MON dynstat_wvel_max             =   3.6325627268460E-04
(PID.TID 0000.0001) %MON dynstat_wvel_min             =  -3.6744893506330E-04
(PID.TID 0000.0001) %MON dynstat_wvel_mean            =  -2.1365796304216E-22
(PID.TID 0000.0001) %MON dynstat_wvel_sd              =   3.1691409716845E-05
(PID.TID 0000.0001) %MON dynstat_wvel_del2            =   1.2489752826877E-05
(PID.TID 0000.0001) %MON dynstat_theta_max            =   2.9520603897083E+01
(PID.TID 0000.0001) %MON dynstat_theta_min            =  -1.9436938162717E+00
(PID.TID 0000.0001) %MON dynstat_theta_mean           =   3.5941187131241E+00
(PID.TID 0000.0001) %MON dynstat_theta_sd             =   4.3457143994333E+00
(PID.TID 0000.0001) %MON dynstat_theta_del2           =   1.3413494840353E-01
(PID.TID 0000.0001) %MON dynstat_salt_max             =   3.7408558220992E+01
(PID.TID 0000.0001) %MON dynstat_salt_min             =   2.9803856772111E+01
(PID.TID 0000.0001) %MON dynstat_salt_mean            =   3.4716392313496E+01
(PID.TID 0000.0001) %MON dynstat_salt_sd              =   2.9449266556313E-01
(PID.TID 0000.0001) %MON dynstat_salt_del2            =   2.5066382737209E-02
(PID.TID 0000.0001) %MON advcfl_uvel_max              =   3.3453666514852E-02
(PID.TID 0000.0001) %MON advcfl_vvel_max              =   1.7827942565123E-02
(PID.TID 0000.0001) %MON advcfl_wvel_max              =   2.0930676928838E-01
(PID.TID 0000.0001) %MON advcfl_W_hf_max              =   1.4875656326539E-01
(PID.TID 0000.0001) %MON pe_b_mean                    =   1.8748705398265E-04
(PID.TID 0000.0001) %MON ke_max                       =   2.3752069908833E-02
(PID.TID 0000.0001) %MON ke_mean                      =   3.1302443522601E-04
(PID.TID 0000.0001) %MON ke_vol                       =   1.3226782436723E+18
(PID.TID 0000.0001) %MON vort_r_min                   =  -7.7291464501351E-07
(PID.TID 0000.0001) %MON vort_r_max                   =   6.2819263450024E-07
(PID.TID 0000.0001) %MON vort_a_mean                  =  -2.5205769221688E-05
(PID.TID 0000.0001) %MON vort_a_sd                    =   7.3402559675189E-05
(PID.TID 0000.0001) %MON vort_p_mean                  =  -3.1758669341067E-05
(PID.TID 0000.0001) %MON vort_p_sd                    =   1.3126214297634E-04
(PID.TID 0000.0001) %MON surfExpan_theta_mean         =  -9.3874491246054E-07
(PID.TID 0000.0001) %MON surfExpan_salt_mean          =  -1.8979175453202E-07
(PID.TID 0000.0001) // =======================================================
(PID.TID 0000.0001) // End MONITOR dynamic field statistics
(PID.TID 0000.0001) // =======================================================
time,SST,SSS,fu,fv,Q,E-P,i0,i1,a,b =   1.4688E+06  8.5907E-01  3.4695E+01 -3.4220E-02 -5.4615E-02  2.6408E+02  0.0000E+00     1     2  6.6667E-02  9.3333E-01
time,fu0,fu1,fu =   1.4688E+06 -3.5633E-02 -1.4435E-02 -3.4220E-02  6.6667E-02  9.3333E-01
 cg2d: Sum(rhs),rhsMax =  -2.23709939461969E-14  1.04409394118357E+01
(PID.TID 0000.0001)                    cg2d_init_res =    6.48587787105154E-01
(PID.TID 0000.0001)                       cg2d_iters =    25
(PID.TID 0000.0001)                         cg2d_res =    3.48262345006688E-14
(PID.TID 0000.0001) // =======================================================
(PID.TID 0000.0001) // Begin MONITOR dynamic field statistics
(PID.TID 0000.0001) // =======================================================
(PID.TID 0000.0001) %MON time_tsnumber                =                    35
(PID.TID 0000.0001) %MON time_secondsf                =   1.5120000000000E+06
(PID.TID 0000.0001) %MON dynstat_eta_max              =   1.1663992062473E+00
(PID.TID 0000.0001) %MON dynstat_eta_min              =  -1.0578327752968E+00
(PID.TID 0000.0001) %MON dynstat_eta_mean             =   9.5725869305525E-17
(PID.TID 0000.0001) %MON dynstat_eta_sd               =   3.8471702941368E-01
(PID.TID 0000.0001) %MON dynstat_eta_del2             =   1.8968061759838E-02
(PID.TID 0000.0001) %MON dynstat_uvel_max             =   2.2419147138444E-01
(PID.TID 0000.0001) %MON dynstat_uvel_min             =  -1.9776513057344E-01
(PID.TID 0000.0001) %MON dynstat_uvel_mean            =  -3.5600157900597E-03
(PID.TID 0000.0001) %MON dynstat_uvel_sd              =   1.9392570012968E-02
(PID.TID 0000.0001) %MON dynstat_uvel_del2            =   5.7080062927926E-03
(PID.TID 0000.0001) %MON dynstat_vvel_max             =   1.9198363659297E-01
(PID.TID 0000.0001) %MON dynstat_vvel_min             =  -1.5752541901091E-01
(PID.TID 0000.0001) %MON dynstat_vvel_mean            =   3.7676475236763E-03
(PID.TID 0000.0001) %MON dynstat_vvel_sd              =   1.6557457129653E-02
(PID.TID 0000.0001) %MON dynstat_vvel_del2            =   5.2648403162092E-03
(PID.TID 0000.0001) %MON dynstat_wvel_max             =   3.4804530557798E-04
(PID.TID 0000.0001) %MON dynstat_wvel_min             =  -3.5977252556754E-04
(PID.TID 0000.0001) %MON dynstat_wvel_mean            =   1.2643737946513E-22
(PID.TID 0000.0001) %MON dynstat_wvel_sd              =   3.1535609489916E-05
(PID.TID 0000.0001) %MON dynstat_wvel_del2            =   1.2452821592353E-05
(PID.TID 0000.0001) %MON dynstat_theta_max            =   2.9532184132044E+01
(PID.TID 0000.0001) %MON dynstat_theta_min            =  -1.9430662635356E+00
(PID.TID 0000.0001) %MON dynstat_theta_mean           =   3.5941374940610E+00
(PID.TID 0000.0001) %MON dynstat_theta_sd             =   4.3462757329557E+00
(PID.TID 0000.0001) %MON dynstat_theta_del2           =   1.3404389021698E-01
(PID.TID 0000.0001) %MON dynstat_salt_max             =   3.7407187974859E+01
(PID.TID 0000.0001) %MON dynstat_salt_min             =   2.9804372197707E+01
(PID.TID 0000.0001) %MON dynstat_salt_mean            =   3.4716385246611E+01
(PID.TID 0000.0001) %MON dynstat_salt_sd              =   2.9442592165843E-01
(PID.TID 0000.0001) %MON dynstat_salt_del2            =   2.5046478010530E-02
(PID.TID 0000.0001) %MON advcfl_uvel_max              =   3.3260379066903E-02
(PID.TID 0000.0001) %MON advcfl_vvel_max              =   1.8649670771332E-02
(PID.TID 0000.0001) %MON advcfl_wvel_max              =   2.2058814767992E-01
(PID.TID 0000.0001) %MON advcfl_W_hf_max              =   1.5629911904615E-01
(PID.TID 0000.0001) %MON pe_b_mean                    =   1.8939304281229E-04
(PID.TID 0000.0001) %MON ke_max                       =   2.3163536629256E-02
(PID.TID 0000.0001) %MON ke_mean                      =   3.0606346775727E-04
(PID.TID 0000.0001) %MON ke_vol                       =   1.3226782436723E+18
(PID.TID 0000.0001) %MON vort_r_min                   =  -7.8152644873258E-07
(PID.TID 0000.0001) %MON vort_r_max                   =   6.3110654574938E-07
(PID.TID 0000.0001) %MON vort_a_mean                  =  -2.5205769229550E-05
(PID.TID 0000.0001) %MON vort_a_sd                    =   7.3402616059007E-05
(PID.TID 0000.0001) %MON vort_p_mean                  =  -3.1758669350973E-05
(PID.TID 0000.0001) %MON vort_p_sd                    =   1.3126227689544E-04
(PID.TID 0000.0001) %MON surfExpan_theta_mean         =   1.1108916075784E-06
(PID.TID 0000.0001) %MON surfExpan_salt_mean          =   2.9659064845789E-07
(PID.TID 0000.0001) // =======================================================
(PID.TID 0000.0001) // End MONITOR dynamic field statistics
(PID.TID 0000.0001) // =======================================================
time,SST,SSS,fu,fv,Q,E-P,i0,i1,a,b =   1.5120E+06  8.3424E-01  3.4690E+01 -3.3866E-02 -5.3955E-02  2.6366E+02  0.0000E+00     1     2  8.3333E-02  9.1667E-01
time,fu0,fu1,fu =   1.5120E+06 -3.5633E-02 -1.4435E-02 -3.3866E-02  8.3333E-02  9.1667E-01
 cg2d: Sum(rhs),rhsMax =  -1.35398636746942E-13  1.03873041546379E+01
(PID.TID 0000.0001)                    cg2d_init_res =    6.29996091324800E-01
(PID.TID 0000.0001)                       cg2d_iters =    25
(PID.TID 0000.0001)                         cg2d_res =    3.67656229750093E-14
(PID.TID 0000.0001) // =======================================================
(PID.TID 0000.0001) // Begin MONITOR dynamic field statistics
(PID.TID 0000.0001) // =======================================================
(PID.TID 0000.0001) %MON time_tsnumber                =                    36
(PID.TID 0000.0001) %MON time_secondsf                =   1.5552000000000E+06
(PID.TID 0000.0001) %MON dynstat_eta_max              =   1.1596895043940E+00
(PID.TID 0000.0001) %MON dynstat_eta_min              =  -1.0578992746021E+00
(PID.TID 0000.0001) %MON dynstat_eta_mean             =   1.2772463313742E-16
(PID.TID 0000.0001) %MON dynstat_eta_sd               =   3.8706580658157E-01
(PID.TID 0000.0001) %MON dynstat_eta_del2             =   1.8909526140141E-02
(PID.TID 0000.0001) %MON dynstat_uvel_max             =   2.2660784898157E-01
(PID.TID 0000.0001) %MON dynstat_uvel_min             =  -1.9662237763791E-01
(PID.TID 0000.0001) %MON dynstat_uvel_mean            =  -3.3725905661780E-03
(PID.TID 0000.0001) %MON dynstat_uvel_sd              =   1.9054580638407E-02
(PID.TID 0000.0001) %MON dynstat_uvel_del2            =   5.7268177388941E-03
(PID.TID 0000.0001) %MON dynstat_vvel_max             =   1.9867568574426E-01
(PID.TID 0000.0001) %MON dynstat_vvel_min             =  -1.6259205362930E-01
(PID.TID 0000.0001) %MON dynstat_vvel_mean            =   3.8116971571820E-03
(PID.TID 0000.0001) %MON dynstat_vvel_sd              =   1.6496196830809E-02
(PID.TID 0000.0001) %MON dynstat_vvel_del2            =   5.2517482269189E-03
(PID.TID 0000.0001) %MON dynstat_wvel_max             =   3.3122453817191E-04
(PID.TID 0000.0001) %MON dynstat_wvel_min             =  -3.5082643702123E-04
(PID.TID 0000.0001) %MON dynstat_wvel_mean            =  -4.9619622228163E-22
(PID.TID 0000.0001) %MON dynstat_wvel_sd              =   3.1391852761370E-05
(PID.TID 0000.0001) %MON dynstat_wvel_del2            =   1.2437245489294E-05
(PID.TID 0000.0001) %MON dynstat_theta_max            =   2.9542340033939E+01
(PID.TID 0000.0001) %MON dynstat_theta_min            =  -1.9464436713545E+00
(PID.TID 0000.0001) %MON dynstat_theta_mean           =   3.5941331949332E+00
(PID.TID 0000.0001) %MON dynstat_theta_sd             =   4.3467745197055E+00
(PID.TID 0000.0001) %MON dynstat_theta_del2           =   1.3394031150108E-01
(PID.TID 0000.0001) %MON dynstat_salt_max             =   3.7405706287360E+01
(PID.TID 0000.0001) %MON dynstat_salt_min             =   2.9804847433332E+01
(PID.TID 0000.0001) %MON dynstat_salt_mean            =   3.4716373336055E+01
(PID.TID 0000.0001) %MON dynstat_salt_sd              =   2.9435774535716E-01
(PID.TID 0000.0001) %MON dynstat_salt_del2            =   2.5023293912583E-02
(PID.TID 0000.0001) %MON advcfl_uvel_max              =   3.3017217043484E-02
(PID.TID 0000.0001) %MON advcfl_vvel_max              =   1.9299749682598E-02
(PID.TID 0000.0001) %MON advcfl_wvel_max              =   2.2530716751204E-01
(PID.TID 0000.0001) %MON advcfl_W_hf_max              =   1.5919401586253E-01
(PID.TID 0000.0001) %MON pe_b_mean                    =   1.9171266969154E-04
(PID.TID 0000.0001) %MON ke_max                       =   2.2368430527834E-02
(PID.TID 0000.0001) %MON ke_mean                      =   2.9881028554744E-04
(PID.TID 0000.0001) %MON ke_vol                       =   1.3226782436723E+18
(PID.TID 0000.0001) %MON vort_r_min                   =  -7.9043429545740E-07
(PID.TID 0000.0001) %MON vort_r_max                   =   6.3544218868647E-07
(PID.TID 0000.0001) %MON vort_a_mean                  =  -2.5205769228641E-05
(PID.TID 0000.0001) %MON vort_a_sd                    =   7.3402665216145E-05
(PID.TID 0000.0001) %MON vort_p_mean                  =  -3.1758669349828E-05
(PID.TID 0000.0001) %MON vort_p_sd                    =   1.3126239851828E-04
(PID.TID 0000.0001) %MON surfExpan_theta_mean         =   3.1842767303750E-06
(PID.TID 0000.0001) %MON surfExpan_salt_mean          =   7.4920018221204E-07
(PID.TID 0000.0001) // =======================================================
(PID.TID 0000.0001) // End MONITOR dynamic field statistics
(PID.TID 0000.0001) // =======================================================
time,SST,SSS,fu,fv,Q,E-P,i0,i1,a,b =   1.5552E+06  8.0940E-01  3.4685E+01 -3.3513E-02 -5.3295E-02  2.6324E+02  0.0000E+00     1     2  1.0000E-01  9.0000E-01
time,fu0,fu1,fu =   1.5552E+06 -3.5633E-02 -1.4435E-02 -3.3513E-02  1.0000E-01  9.0000E-01
 cg2d: Sum(rhs),rhsMax =  -1.31603061781504E-13  1.02380203759379E+01
(PID.TID 0000.0001)                    cg2d_init_res =    6.16439670754297E-01
(PID.TID 0000.0001)                       cg2d_iters =    25
(PID.TID 0000.0001)                         cg2d_res =    3.81959145599042E-14
(PID.TID 0000.0001) // =======================================================
(PID.TID 0000.0001) // Begin MONITOR dynamic field statistics
(PID.TID 0000.0001) // =======================================================
(PID.TID 0000.0001) %MON time_tsnumber                =                    37
(PID.TID 0000.0001) %MON time_secondsf                =   1.5984000000000E+06
(PID.TID 0000.0001) %MON dynstat_eta_max              =   1.1423477411090E+00
(PID.TID 0000.0001) %MON dynstat_eta_min              =  -1.0548799202466E+00
(PID.TID 0000.0001) %MON dynstat_eta_mean             =  -5.7550420267059E-17
(PID.TID 0000.0001) %MON dynstat_eta_sd               =   3.8968620449375E-01
(PID.TID 0000.0001) %MON dynstat_eta_del2             =   1.8780492502523E-02
(PID.TID 0000.0001) %MON dynstat_uvel_max             =   2.2607849238356E-01
(PID.TID 0000.0001) %MON dynstat_uvel_min             =  -1.9506271737920E-01
(PID.TID 0000.0001) %MON dynstat_uvel_mean            =  -3.2182483050566E-03
(PID.TID 0000.0001) %MON dynstat_uvel_sd              =   1.8724449939588E-02
(PID.TID 0000.0001) %MON dynstat_uvel_del2            =   5.7404522382469E-03
(PID.TID 0000.0001) %MON dynstat_vvel_max             =   2.0348662456483E-01
(PID.TID 0000.0001) %MON dynstat_vvel_min             =  -1.6469879336720E-01
(PID.TID 0000.0001) %MON dynstat_vvel_mean            =   3.8176828750635E-03
(PID.TID 0000.0001) %MON dynstat_vvel_sd              =   1.6408922922472E-02
(PID.TID 0000.0001) %MON dynstat_vvel_del2            =   5.2397300301137E-03
(PID.TID 0000.0001) %MON dynstat_wvel_max             =   3.1298872500426E-04
(PID.TID 0000.0001) %MON dynstat_wvel_min             =  -3.4081622431595E-04
(PID.TID 0000.0001) %MON dynstat_wvel_mean            =   1.4182813311750E-24
(PID.TID 0000.0001) %MON dynstat_wvel_sd              =   3.1257588326927E-05
(PID.TID 0000.0001) %MON dynstat_wvel_del2            =   1.2437994709383E-05
(PID.TID 0000.0001) %MON dynstat_theta_max            =   2.9551026953486E+01
(PID.TID 0000.0001) %MON dynstat_theta_min            =  -1.9469980188857E+00
(PID.TID 0000.0001) %MON dynstat_theta_mean           =   3.5941073210951E+00
(PID.TID 0000.0001) %MON dynstat_theta_sd             =   4.3471938888086E+00
(PID.TID 0000.0001) %MON dynstat_theta_del2           =   1.3381853967947E-01
(PID.TID 0000.0001) %MON dynstat_salt_max             =   3.7404098615670E+01
(PID.TID 0000.0001) %MON dynstat_salt_min             =   2.9805266571873E+01
(PID.TID 0000.0001) %MON dynstat_salt_mean            =   3.4716357291031E+01
(PID.TID 0000.0001) %MON dynstat_salt_sd              =   2.9428845608945E-01
(PID.TID 0000.0001) %MON dynstat_salt_del2            =   2.4998797757950E-02
(PID.TID 0000.0001) %MON advcfl_uvel_max              =   3.2735586062205E-02
(PID.TID 0000.0001) %MON advcfl_vvel_max              =   1.9767093809925E-02
(PID.TID 0000.0001) %MON advcfl_wvel_max              =   2.2331709556904E-01
(PID.TID 0000.0001) %MON advcfl_W_hf_max              =   1.5735187178651E-01
(PID.TID 0000.0001) %MON pe_b_mean                    =   1.9431720848988E-04
(PID.TID 0000.0001) %MON ke_max                       =   2.1379479766479E-02
(PID.TID 0000.0001) %MON ke_mean                      =   2.9141315318453E-04
(PID.TID 0000.0001) %MON ke_vol                       =   1.3226782436723E+18
(PID.TID 0000.0001) %MON vort_r_min                   =  -7.9934624407729E-07
(PID.TID 0000.0001) %MON vort_r_max                   =   6.4092311699326E-07
(PID.TID 0000.0001) %MON vort_a_mean                  =  -2.5205769218898E-05
(PID.TID 0000.0001) %MON vort_a_sd                    =   7.3402707526005E-05
(PID.TID 0000.0001) %MON vort_p_mean                  =  -3.1758669337552E-05
(PID.TID 0000.0001) %MON vort_p_sd                    =   1.3126250838135E-04
(PID.TID 0000.0001) %MON surfExpan_theta_mean         =   5.1818918953999E-06
(PID.TID 0000.0001) %MON surfExpan_salt_mean          =   1.1498045954678E-06
(PID.TID 0000.0001) // =======================================================
(PID.TID 0000.0001) // End MONITOR dynamic field statistics
(PID.TID 0000.0001) // =======================================================
time,SST,SSS,fu,fv,Q,E-P,i0,i1,a,b =   1.5984E+06  7.8456E-01  3.4680E+01 -3.3160E-02 -5.2634E-02  2.6282E+02  0.0000E+00     1     2  1.1667E-01  8.8333E-01
time,fu0,fu1,fu =   1.5984E+06 -3.5633E-02 -1.4435E-02 -3.3160E-02  1.1667E-01  8.8333E-01
 cg2d: Sum(rhs),rhsMax =   4.13280520916715E-14  9.99413255126323E+00
(PID.TID 0000.0001)                    cg2d_init_res =    6.10424520521359E-01
(PID.TID 0000.0001)                       cg2d_iters =    25
(PID.TID 0000.0001)                         cg2d_res =    3.93399300304686E-14
(PID.TID 0000.0001) // =======================================================
(PID.TID 0000.0001) // Begin MONITOR dynamic field statistics
(PID.TID 0000.0001) // =======================================================
(PID.TID 0000.0001) %MON time_tsnumber                =                    38
(PID.TID 0000.0001) %MON time_secondsf                =   1.6416000000000E+06
(PID.TID 0000.0001) %MON dynstat_eta_max              =   1.1144876394779E+00
(PID.TID 0000.0001) %MON dynstat_eta_min              =  -1.0487792870717E+00
(PID.TID 0000.0001) %MON dynstat_eta_mean             =   1.2660249643618E-16
(PID.TID 0000.0001) %MON dynstat_eta_sd               =   3.9244127196389E-01
(PID.TID 0000.0001) %MON dynstat_eta_del2             =   1.8697783841397E-02
(PID.TID 0000.0001) %MON dynstat_uvel_max             =   2.2258888218444E-01
(PID.TID 0000.0001) %MON dynstat_uvel_min             =  -1.9310584466933E-01
(PID.TID 0000.0001) %MON dynstat_uvel_mean            =  -3.0926634820041E-03
(PID.TID 0000.0001) %MON dynstat_uvel_sd              =   1.8410653863734E-02
(PID.TID 0000.0001) %MON dynstat_uvel_del2            =   5.7490507007239E-03
(PID.TID 0000.0001) %MON dynstat_vvel_max             =   2.0633809908132E-01
(PID.TID 0000.0001) %MON dynstat_vvel_min             =  -1.6380536247225E-01
(PID.TID 0000.0001) %MON dynstat_vvel_mean            =   3.7841463593548E-03
(PID.TID 0000.0001) %MON dynstat_vvel_sd              =   1.6298095872343E-02
(PID.TID 0000.0001) %MON dynstat_vvel_del2            =   5.2285179689836E-03
(PID.TID 0000.0001) %MON dynstat_wvel_max             =   2.9353785107343E-04
(PID.TID 0000.0001) %MON dynstat_wvel_min             =  -3.2997349052956E-04
(PID.TID 0000.0001) %MON dynstat_wvel_mean            =  -1.5002315519374E-23
(PID.TID 0000.0001) %MON dynstat_wvel_sd              =   3.1131124170479E-05
(PID.TID 0000.0001) %MON dynstat_wvel_del2            =   1.2438285636233E-05
(PID.TID 0000.0001) %MON dynstat_theta_max            =   2.9558225521202E+01
(PID.TID 0000.0001) %MON dynstat_theta_min            =  -1.9470284746053E+00
(PID.TID 0000.0001) %MON dynstat_theta_mean           =   3.5940620347849E+00
(PID.TID 0000.0001) %MON dynstat_theta_sd             =   4.3475227840041E+00
(PID.TID 0000.0001) %MON dynstat_theta_del2           =   1.3369202181084E-01
(PID.TID 0000.0001) %MON dynstat_salt_max             =   3.7402359494109E+01
(PID.TID 0000.0001) %MON dynstat_salt_min             =   2.9805616011958E+01
(PID.TID 0000.0001) %MON dynstat_salt_mean            =   3.4716337963832E+01
(PID.TID 0000.0001) %MON dynstat_salt_sd              =   2.9421878400877E-01
(PID.TID 0000.0001) %MON dynstat_salt_del2            =   2.4970706866047E-02
(PID.TID 0000.0001) %MON advcfl_uvel_max              =   3.2426793759559E-02
(PID.TID 0000.0001) %MON advcfl_vvel_max              =   2.0044091693126E-02
(PID.TID 0000.0001) %MON advcfl_wvel_max              =   2.1469283420582E-01
(PID.TID 0000.0001) %MON advcfl_W_hf_max              =   1.5083990938155E-01
(PID.TID 0000.0001) %MON pe_b_mean                    =   1.9707455268763E-04
(PID.TID 0000.0001) %MON ke_max                       =   2.0216940883682E-02
(PID.TID 0000.0001) %MON ke_mean                      =   2.8401722263111E-04
(PID.TID 0000.0001) %MON ke_vol                       =   1.3226782436723E+18
(PID.TID 0000.0001) %MON vort_r_min                   =  -8.0794646089202E-07
(PID.TID 0000.0001) %MON vort_r_max                   =   6.4718903513813E-07
(PID.TID 0000.0001) %MON vort_a_mean                  =  -2.5205769200741E-05
(PID.TID 0000.0001) %MON vort_a_sd                    =   7.3402743549934E-05
(PID.TID 0000.0001) %MON vort_p_mean                  =  -3.1758669314675E-05
(PID.TID 0000.0001) %MON vort_p_sd                    =   1.3126260717966E-04
(PID.TID 0000.0001) %MON surfExpan_theta_mean         =   7.0230029641887E-06
(PID.TID 0000.0001) %MON surfExpan_salt_mean          =   1.4840128613759E-06
(PID.TID 0000.0001) // =======================================================
(PID.TID 0000.0001) // End MONITOR dynamic field statistics
(PID.TID 0000.0001) // =======================================================
time,SST,SSS,fu,fv,Q,E-P,i0,i1,a,b =   1.6416E+06  7.5972E-01  3.4675E+01 -3.2807E-02 -5.1974E-02  2.6240E+02  0.0000E+00     1     2  1.3333E-01  8.6667E-01
time,fu0,fu1,fu =   1.6416E+06 -3.5633E-02 -1.4435E-02 -3.2807E-02  1.3333E-01  8.6667E-01
 cg2d: Sum(rhs),rhsMax =  -1.24296406500690E-13  9.65836231785139E+00
(PID.TID 0000.0001)                    cg2d_init_res =    6.14347692130629E-01
(PID.TID 0000.0001)                       cg2d_iters =    25
(PID.TID 0000.0001)                         cg2d_res =    4.03565588773406E-14
(PID.TID 0000.0001) // =======================================================
(PID.TID 0000.0001) // Begin MONITOR dynamic field statistics
(PID.TID 0000.0001) // =======================================================
(PID.TID 0000.0001) %MON time_tsnumber                =                    39
(PID.TID 0000.0001) %MON time_secondsf                =   1.6848000000000E+06
(PID.TID 0000.0001) %MON dynstat_eta_max              =   1.0764072015350E+00
(PID.TID 0000.0001) %MON dynstat_eta_min              =  -1.0401512430039E+00
(PID.TID 0000.0001) %MON dynstat_eta_mean             =  -8.7717560531705E-17
(PID.TID 0000.0001) %MON dynstat_eta_sd               =   3.9520840665149E-01
(PID.TID 0000.0001) %MON dynstat_eta_del2             =   1.8718286235607E-02
(PID.TID 0000.0001) %MON dynstat_uvel_max             =   2.1619152979574E-01
(PID.TID 0000.0001) %MON dynstat_uvel_min             =  -1.9076612648631E-01
(PID.TID 0000.0001) %MON dynstat_uvel_mean            =  -2.9910072718993E-03
(PID.TID 0000.0001) %MON dynstat_uvel_sd              =   1.8120118967581E-02
(PID.TID 0000.0001) %MON dynstat_uvel_del2            =   5.7500693925573E-03
(PID.TID 0000.0001) %MON dynstat_vvel_max             =   2.0719014628771E-01
(PID.TID 0000.0001) %MON dynstat_vvel_min             =  -1.5994263813685E-01
(PID.TID 0000.0001) %MON dynstat_vvel_mean            =   3.7107528326291E-03
(PID.TID 0000.0001) %MON dynstat_vvel_sd              =   1.6166751846083E-02
(PID.TID 0000.0001) %MON dynstat_vvel_del2            =   5.2158732997922E-03
(PID.TID 0000.0001) %MON dynstat_wvel_max             =   2.7307129980309E-04
(PID.TID 0000.0001) %MON dynstat_wvel_min             =  -3.1854134670394E-04
(PID.TID 0000.0001) %MON dynstat_wvel_mean            =  -3.6822505929504E-22
(PID.TID 0000.0001) %MON dynstat_wvel_sd              =   3.1009851115911E-05
(PID.TID 0000.0001) %MON dynstat_wvel_del2            =   1.2438439786552E-05
(PID.TID 0000.0001) %MON dynstat_theta_max            =   2.9563931483790E+01
(PID.TID 0000.0001) %MON dynstat_theta_min            =  -1.9468017811965E+00
(PID.TID 0000.0001) %MON dynstat_theta_mean           =   3.5940001600694E+00
(PID.TID 0000.0001) %MON dynstat_theta_sd             =   4.3477532188853E+00
(PID.TID 0000.0001) %MON dynstat_theta_del2           =   1.3358167284842E-01
(PID.TID 0000.0001) %MON dynstat_salt_max             =   3.7400481827535E+01
(PID.TID 0000.0001) %MON dynstat_salt_min             =   2.9805884941031E+01
(PID.TID 0000.0001) %MON dynstat_salt_mean            =   3.4716316290598E+01
(PID.TID 0000.0001) %MON dynstat_salt_sd              =   2.9414919475804E-01
(PID.TID 0000.0001) %MON dynstat_salt_del2            =   2.4941250514710E-02
(PID.TID 0000.0001) %MON advcfl_uvel_max              =   3.2101756502024E-02
(PID.TID 0000.0001) %MON advcfl_vvel_max              =   2.0126861246629E-02
(PID.TID 0000.0001) %MON advcfl_wvel_max              =   1.9972943546264E-01
(PID.TID 0000.0001) %MON advcfl_W_hf_max              =   1.5676677660291E-01
(PID.TID 0000.0001) %MON pe_b_mean                    =   1.9986352754315E-04
(PID.TID 0000.0001) %MON ke_max                       =   1.8907654808355E-02
(PID.TID 0000.0001) %MON ke_mean                      =   2.7675311832637E-04
(PID.TID 0000.0001) %MON ke_vol                       =   1.3226782436723E+18
(PID.TID 0000.0001) %MON vort_r_min                   =  -8.1591073118372E-07
(PID.TID 0000.0001) %MON vort_r_max                   =   6.5382081952271E-07
(PID.TID 0000.0001) %MON vort_a_mean                  =  -2.5205769175050E-05
(PID.TID 0000.0001) %MON vort_a_sd                    =   7.3402773994530E-05
(PID.TID 0000.0001) %MON vort_p_mean                  =  -3.1758669282304E-05
(PID.TID 0000.0001) %MON vort_p_sd                    =   1.3126269577819E-04
(PID.TID 0000.0001) %MON surfExpan_theta_mean         =   8.6460386816633E-06
(PID.TID 0000.0001) %MON surfExpan_salt_mean          =   1.7416887330566E-06
(PID.TID 0000.0001) // =======================================================
(PID.TID 0000.0001) // End MONITOR dynamic field statistics
(PID.TID 0000.0001) // =======================================================
time,SST,SSS,fu,fv,Q,E-P,i0,i1,a,b =   1.6848E+06  7.3488E-01  3.4671E+01 -3.2453E-02 -5.1313E-02  2.6198E+02  0.0000E+00     1     2  1.5000E-01  8.5000E-01
time,fu0,fu1,fu =   1.6848E+06 -3.5633E-02 -1.4435E-02 -3.2453E-02  1.5000E-01  8.5000E-01
 cg2d: Sum(rhs),rhsMax =   1.58359436674971E-13  9.23489370238696E+00
(PID.TID 0000.0001)                    cg2d_init_res =    6.30132645396347E-01
(PID.TID 0000.0001)                       cg2d_iters =    25
(PID.TID 0000.0001)                         cg2d_res =    4.13422161928590E-14
(PID.TID 0000.0001) // =======================================================
(PID.TID 0000.0001) // Begin MONITOR dynamic field statistics
(PID.TID 0000.0001) // =======================================================
(PID.TID 0000.0001) %MON time_tsnumber                =                    40
(PID.TID 0000.0001) %MON time_secondsf                =   1.7280000000000E+06
(PID.TID 0000.0001) %MON dynstat_eta_max              =   1.0285673045893E+00
(PID.TID 0000.0001) %MON dynstat_eta_min              =  -1.0642125912510E+00
(PID.TID 0000.0001) %MON dynstat_eta_mean             =   2.4104722563239E-16
(PID.TID 0000.0001) %MON dynstat_eta_sd               =   3.9788879563622E-01
(PID.TID 0000.0001) %MON dynstat_eta_del2             =   1.8737118081608E-02
(PID.TID 0000.0001) %MON dynstat_uvel_max             =   2.0700199683626E-01
(PID.TID 0000.0001) %MON dynstat_uvel_min             =  -1.9766003367786E-01
(PID.TID 0000.0001) %MON dynstat_uvel_mean            =  -2.9081826049404E-03
(PID.TID 0000.0001) %MON dynstat_uvel_sd              =   1.7857869471429E-02
(PID.TID 0000.0001) %MON dynstat_uvel_del2            =   5.7449138776650E-03
(PID.TID 0000.0001) %MON dynstat_vvel_max             =   2.0604219214182E-01
(PID.TID 0000.0001) %MON dynstat_vvel_min             =  -1.5321184986258E-01
(PID.TID 0000.0001) %MON dynstat_vvel_mean            =   3.5981987989763E-03
(PID.TID 0000.0001) %MON dynstat_vvel_sd              =   1.6018283715771E-02
(PID.TID 0000.0001) %MON dynstat_vvel_del2            =   5.2042781099247E-03
(PID.TID 0000.0001) %MON dynstat_wvel_max             =   2.6205599050702E-04
(PID.TID 0000.0001) %MON dynstat_wvel_min             =  -3.0675996981820E-04
(PID.TID 0000.0001) %MON dynstat_wvel_mean            =   5.2530064629523E-22
(PID.TID 0000.0001) %MON dynstat_wvel_sd              =   3.0889149964907E-05
(PID.TID 0000.0001) %MON dynstat_wvel_del2            =   1.2441289578927E-05
(PID.TID 0000.0001) %MON dynstat_theta_max            =   2.9568149518728E+01
(PID.TID 0000.0001) %MON dynstat_theta_min            =  -1.9463463845625E+00
(PID.TID 0000.0001) %MON dynstat_theta_mean           =   3.5939248883410E+00
(PID.TID 0000.0001) %MON dynstat_theta_sd             =   4.3478810491368E+00
(PID.TID 0000.0001) %MON dynstat_theta_del2           =   1.3352019567411E-01
(PID.TID 0000.0001) %MON dynstat_salt_max             =   3.7398461415301E+01
(PID.TID 0000.0001) %MON dynstat_salt_min             =   2.9806065622264E+01
(PID.TID 0000.0001) %MON dynstat_salt_mean            =   3.4716293242500E+01
(PID.TID 0000.0001) %MON dynstat_salt_sd              =   2.9407976790095E-01
(PID.TID 0000.0001) %MON dynstat_salt_del2            =   2.4912458633043E-02
(PID.TID 0000.0001) %MON advcfl_uvel_max              =   3.1770681698376E-02
(PID.TID 0000.0001) %MON advcfl_vvel_max              =   2.0015346706842E-02
(PID.TID 0000.0001) %MON advcfl_wvel_max              =   1.7893358479133E-01
(PID.TID 0000.0001) %MON advcfl_W_hf_max              =   1.6059435292949E-01
(PID.TID 0000.0001) %MON pe_b_mean                    =   2.0258375639461E-04
(PID.TID 0000.0001) %MON ke_max                       =   1.8285186954509E-02
(PID.TID 0000.0001) %MON ke_mean                      =   2.6973000112530E-04
(PID.TID 0000.0001) %MON ke_vol                       =   1.3226782436723E+18
(PID.TID 0000.0001) %MON vort_r_min                   =  -8.2291933562775E-07
(PID.TID 0000.0001) %MON vort_r_max                   =   6.6036355396371E-07
(PID.TID 0000.0001) %MON vort_a_mean                  =  -2.5205769143016E-05
(PID.TID 0000.0001) %MON vort_a_sd                    =   7.3402799673058E-05
(PID.TID 0000.0001) %MON vort_p_mean                  =  -3.1758669241943E-05
(PID.TID 0000.0001) %MON vort_p_sd                    =   1.3126277518450E-04
(PID.TID 0000.0001) %MON surfExpan_theta_mean         =   1.0006257754340E-05
(PID.TID 0000.0001) %MON surfExpan_salt_mean          =   1.9166332766135E-06
(PID.TID 0000.0001) // =======================================================
(PID.TID 0000.0001) // End MONITOR dynamic field statistics
(PID.TID 0000.0001) // =======================================================
time,SST,SSS,fu,fv,Q,E-P,i0,i1,a,b =   1.7280E+06  7.1005E-01  3.4666E+01 -3.2100E-02 -5.0653E-02  2.6156E+02  0.0000E+00     1     2  1.6667E-01  8.3333E-01
time,fu0,fu1,fu =   1.7280E+06 -3.5633E-02 -1.4435E-02 -3.2100E-02  1.6667E-01  8.3333E-01
 cg2d: Sum(rhs),rhsMax =  -2.67147415300428E-14  8.72915880815877E+00
(PID.TID 0000.0001)                    cg2d_init_res =    6.59061113541164E-01
(PID.TID 0000.0001)                       cg2d_iters =    25
(PID.TID 0000.0001)                         cg2d_res =    4.22749851828184E-14
(PID.TID 0000.0001) // =======================================================
(PID.TID 0000.0001) // Begin MONITOR dynamic field statistics
(PID.TID 0000.0001) // =======================================================
(PID.TID 0000.0001) %MON time_tsnumber                =                    41
(PID.TID 0000.0001) %MON time_secondsf                =   1.7712000000000E+06
(PID.TID 0000.0001) %MON dynstat_eta_max              =   9.7157007684485E-01
(PID.TID 0000.0001) %MON dynstat_eta_min              =  -1.0802094447125E+00
(PID.TID 0000.0001) %MON dynstat_eta_mean             =  -1.3437262252977E-16
(PID.TID 0000.0001) %MON dynstat_eta_sd               =   4.0041081215918E-01
(PID.TID 0000.0001) %MON dynstat_eta_del2             =   1.8808376978334E-02
(PID.TID 0000.0001) %MON dynstat_uvel_max             =   1.9960909253522E-01
(PID.TID 0000.0001) %MON dynstat_uvel_min             =  -2.0871084780164E-01
(PID.TID 0000.0001) %MON dynstat_uvel_mean            =  -2.8390551801779E-03
(PID.TID 0000.0001) %MON dynstat_uvel_sd              =   1.7626863798693E-02
(PID.TID 0000.0001) %MON dynstat_uvel_del2            =   5.7336716535303E-03
(PID.TID 0000.0001) %MON dynstat_vvel_max             =   2.0293250081725E-01
(PID.TID 0000.0001) %MON dynstat_vvel_min             =  -1.5273613289599E-01
(PID.TID 0000.0001) %MON dynstat_vvel_mean            =   3.4481025831453E-03
(PID.TID 0000.0001) %MON dynstat_vvel_sd              =   1.5856395583256E-02
(PID.TID 0000.0001) %MON dynstat_vvel_del2            =   5.1931311851033E-03
(PID.TID 0000.0001) %MON dynstat_wvel_max             =   2.6970433476744E-04
(PID.TID 0000.0001) %MON dynstat_wvel_min             =  -2.9485410633200E-04
(PID.TID 0000.0001) %MON dynstat_wvel_mean            =  -1.9320536201967E-22
(PID.TID 0000.0001) %MON dynstat_wvel_sd              =   3.0762413561123E-05
(PID.TID 0000.0001) %MON dynstat_wvel_del2            =   1.2436683051631E-05
(PID.TID 0000.0001) %MON dynstat_theta_max            =   2.9571084089215E+01
(PID.TID 0000.0001) %MON dynstat_theta_min            =  -1.9457008204648E+00
(PID.TID 0000.0001) %MON dynstat_theta_mean           =   3.5938395066111E+00
(PID.TID 0000.0001) %MON dynstat_theta_sd             =   4.3479098291164E+00
(PID.TID 0000.0001) %MON dynstat_theta_del2           =   1.3341479842072E-01
(PID.TID 0000.0001) %MON dynstat_salt_max             =   3.7396296594560E+01
(PID.TID 0000.0001) %MON dynstat_salt_min             =   2.9806153482791E+01
(PID.TID 0000.0001) %MON dynstat_salt_mean            =   3.4716269785946E+01
(PID.TID 0000.0001) %MON dynstat_salt_sd              =   2.9401242788432E-01
(PID.TID 0000.0001) %MON dynstat_salt_del2            =   2.4874635160331E-02
(PID.TID 0000.0001) %MON advcfl_uvel_max              =   3.1442827034951E-02
(PID.TID 0000.0001) %MON advcfl_vvel_max              =   1.9713265131386E-02
(PID.TID 0000.0001) %MON advcfl_wvel_max              =   1.8629062589255E-01
(PID.TID 0000.0001) %MON advcfl_W_hf_max              =   1.6002804881861E-01
(PID.TID 0000.0001) %MON pe_b_mean                    =   2.0516004814939E-04
(PID.TID 0000.0001) %MON ke_max                       =   1.8302378426323E-02
(PID.TID 0000.0001) %MON ke_mean                      =   2.6303398194812E-04
(PID.TID 0000.0001) %MON ke_vol                       =   1.3226782436723E+18
(PID.TID 0000.0001) %MON vort_r_min                   =  -8.2866356375022E-07
(PID.TID 0000.0001) %MON vort_r_max                   =   6.6634668406074E-07
(PID.TID 0000.0001) %MON vort_a_mean                  =  -2.5205769106052E-05
(PID.TID 0000.0001) %MON vort_a_sd                    =   7.3402821463596E-05
(PID.TID 0000.0001) %MON vort_p_mean                  =  -3.1758669195369E-05
(PID.TID 0000.0001) %MON vort_p_sd                    =   1.3126284648424E-04
(PID.TID 0000.0001) %MON surfExpan_theta_mean         =   1.1087232041107E-05
(PID.TID 0000.0001) %MON surfExpan_salt_mean          =   2.0081155533767E-06
(PID.TID 0000.0001) // =======================================================
(PID.TID 0000.0001) // End MONITOR dynamic field statistics
(PID.TID 0000.0001) // =======================================================
time,SST,SSS,fu,fv,Q,E-P,i0,i1,a,b =   1.7712E+06  6.8521E-01  3.4661E+01 -3.1747E-02 -4.9993E-02  2.6113E+02  0.0000E+00     1     2  1.8333E-01  8.1667E-01
time,fu0,fu1,fu =   1.7712E+06 -3.5633E-02 -1.4435E-02 -3.1747E-02  1.8333E-01  8.1667E-01
 cg2d: Sum(rhs),rhsMax =   2.87408985499837E-14  8.14764726965574E+00
(PID.TID 0000.0001)                    cg2d_init_res =    7.01965874305188E-01
(PID.TID 0000.0001)                       cg2d_iters =    25
(PID.TID 0000.0001)                         cg2d_res =    4.30791721860861E-14
(PID.TID 0000.0001) // =======================================================
(PID.TID 0000.0001) // Begin MONITOR dynamic field statistics
(PID.TID 0000.0001) // =======================================================
(PID.TID 0000.0001) %MON time_tsnumber                =                    42
(PID.TID 0000.0001) %MON time_secondsf                =   1.8144000000000E+06
(PID.TID 0000.0001) %MON dynstat_eta_max              =   9.0613935233895E-01
(PID.TID 0000.0001) %MON dynstat_eta_min              =  -1.0864507244019E+00
(PID.TID 0000.0001) %MON dynstat_eta_mean             =  -6.5490812567937E-17
(PID.TID 0000.0001) %MON dynstat_eta_sd               =   4.0272821337225E-01
(PID.TID 0000.0001) %MON dynstat_eta_del2             =   1.8931123310537E-02
(PID.TID 0000.0001) %MON dynstat_uvel_max             =   1.9213235147777E-01
(PID.TID 0000.0001) %MON dynstat_uvel_min             =  -2.1685310706181E-01
(PID.TID 0000.0001) %MON dynstat_uvel_mean            =  -2.7786622506999E-03
(PID.TID 0000.0001) %MON dynstat_uvel_sd              =   1.7428044236188E-02
(PID.TID 0000.0001) %MON dynstat_uvel_del2            =   5.7156347713396E-03
(PID.TID 0000.0001) %MON dynstat_vvel_max             =   1.9793625334264E-01
(PID.TID 0000.0001) %MON dynstat_vvel_min             =  -1.5372757334143E-01
(PID.TID 0000.0001) %MON dynstat_vvel_mean            =   3.2628790824534E-03
(PID.TID 0000.0001) %MON dynstat_vvel_sd              =   1.5685211731670E-02
(PID.TID 0000.0001) %MON dynstat_vvel_del2            =   5.1820435141797E-03
(PID.TID 0000.0001) %MON dynstat_wvel_max             =   2.7663209459452E-04
(PID.TID 0000.0001) %MON dynstat_wvel_min             =  -2.8302407323291E-04
(PID.TID 0000.0001) %MON dynstat_wvel_mean            =  -4.5927785614200E-22
(PID.TID 0000.0001) %MON dynstat_wvel_sd              =   3.0621861115799E-05
(PID.TID 0000.0001) %MON dynstat_wvel_del2            =   1.2420625308964E-05
(PID.TID 0000.0001) %MON dynstat_theta_max            =   2.9581255585412E+01
(PID.TID 0000.0001) %MON dynstat_theta_min            =  -1.9448925468470E+00
(PID.TID 0000.0001) %MON dynstat_theta_mean           =   3.5937472201922E+00
(PID.TID 0000.0001) %MON dynstat_theta_sd             =   4.3478442867436E+00
(PID.TID 0000.0001) %MON dynstat_theta_del2           =   1.3331767205334E-01
(PID.TID 0000.0001) %MON dynstat_salt_max             =   3.7393988125023E+01
(PID.TID 0000.0001) %MON dynstat_salt_min             =   2.9806147010772E+01
(PID.TID 0000.0001) %MON dynstat_salt_mean            =   3.4716246820187E+01
(PID.TID 0000.0001) %MON dynstat_salt_sd              =   2.9394725502226E-01
(PID.TID 0000.0001) %MON dynstat_salt_del2            =   2.4841385597480E-02
(PID.TID 0000.0001) %MON advcfl_uvel_max              =   3.1126330505897E-02
(PID.TID 0000.0001) %MON advcfl_vvel_max              =   1.9227919754316E-02
(PID.TID 0000.0001) %MON advcfl_wvel_max              =   1.8859179575686E-01
(PID.TID 0000.0001) %MON advcfl_W_hf_max              =   1.5496855592729E-01
(PID.TID 0000.0001) %MON pe_b_mean                    =   2.0754167193745E-04
(PID.TID 0000.0001) %MON ke_max                       =   1.8267160313354E-02
(PID.TID 0000.0001) %MON ke_mean                      =   2.5673136592265E-04
(PID.TID 0000.0001) %MON ke_vol                       =   1.3226782436723E+18
(PID.TID 0000.0001) %MON vort_r_min                   =  -8.3285024784715E-07
(PID.TID 0000.0001) %MON vort_r_max                   =   6.7130206104814E-07
(PID.TID 0000.0001) %MON vort_a_mean                  =  -2.5205769065685E-05
(PID.TID 0000.0001) %MON vort_a_sd                    =   7.3402840268026E-05
(PID.TID 0000.0001) %MON vort_p_mean                  =  -3.1758669144507E-05
(PID.TID 0000.0001) %MON vort_p_sd                    =   1.3126291076869E-04
(PID.TID 0000.0001) %MON surfExpan_theta_mean         =   1.1881314777498E-05
(PID.TID 0000.0001) %MON surfExpan_salt_mean          =   2.0177236198183E-06
(PID.TID 0000.0001) // =======================================================
(PID.TID 0000.0001) // End MONITOR dynamic field statistics
(PID.TID 0000.0001) // =======================================================
time,SST,SSS,fu,fv,Q,E-P,i0,i1,a,b =   1.8144E+06  6.6037E-01  3.4656E+01 -3.1393E-02 -4.9332E-02  2.6071E+02  0.0000E+00     1     2  2.0000E-01  8.0000E-01
time,fu0,fu1,fu =   1.8144E+06 -3.5633E-02 -1.4435E-02 -3.1393E-02  2.0000E-01  8.0000E-01
 cg2d: Sum(rhs),rhsMax =   4.48113768314329E-14  7.68469224066821E+00
(PID.TID 0000.0001)                    cg2d_init_res =    7.41331517378940E-01
(PID.TID 0000.0001)                       cg2d_iters =    25
(PID.TID 0000.0001)                         cg2d_res =    4.26677649045913E-14
(PID.TID 0000.0001) // =======================================================
(PID.TID 0000.0001) // Begin MONITOR dynamic field statistics
(PID.TID 0000.0001) // =======================================================
(PID.TID 0000.0001) %MON time_tsnumber                =                    43
(PID.TID 0000.0001) %MON time_secondsf                =   1.8576000000000E+06
(PID.TID 0000.0001) %MON dynstat_eta_max              =   8.3355386955784E-01
(PID.TID 0000.0001) %MON dynstat_eta_min              =  -1.1081348499981E+00
(PID.TID 0000.0001) %MON dynstat_eta_mean             =   3.2813654410678E-17
(PID.TID 0000.0001) %MON dynstat_eta_sd               =   4.0481491045658E-01
(PID.TID 0000.0001) %MON dynstat_eta_del2             =   1.9057908136600E-02
(PID.TID 0000.0001) %MON dynstat_uvel_max             =   1.8116952981204E-01
(PID.TID 0000.0001) %MON dynstat_uvel_min             =  -2.2182694342908E-01
(PID.TID 0000.0001) %MON dynstat_uvel_mean            =  -2.7224001476629E-03
(PID.TID 0000.0001) %MON dynstat_uvel_sd              =   1.7260601844956E-02
(PID.TID 0000.0001) %MON dynstat_uvel_del2            =   5.6914373152497E-03
(PID.TID 0000.0001) %MON dynstat_vvel_max             =   1.9116249228110E-01
(PID.TID 0000.0001) %MON dynstat_vvel_min             =  -1.5403098139999E-01
(PID.TID 0000.0001) %MON dynstat_vvel_mean            =   3.0456056153440E-03
(PID.TID 0000.0001) %MON dynstat_vvel_sd              =   1.5509448418027E-02
(PID.TID 0000.0001) %MON dynstat_vvel_del2            =   5.1714794834818E-03
(PID.TID 0000.0001) %MON dynstat_wvel_max             =   2.8286999884426E-04
(PID.TID 0000.0001) %MON dynstat_wvel_min             =  -2.7144059326329E-04
(PID.TID 0000.0001) %MON dynstat_wvel_mean            =  -3.7869595498564E-22
(PID.TID 0000.0001) %MON dynstat_wvel_sd              =   3.0460066920569E-05
(PID.TID 0000.0001) %MON dynstat_wvel_del2            =   1.2390752327890E-05
(PID.TID 0000.0001) %MON dynstat_theta_max            =   2.9591806156081E+01
(PID.TID 0000.0001) %MON dynstat_theta_min            =  -1.9439601872773E+00
(PID.TID 0000.0001) %MON dynstat_theta_mean           =   3.5936509983809E+00
(PID.TID 0000.0001) %MON dynstat_theta_sd             =   4.3476943632568E+00
(PID.TID 0000.0001) %MON dynstat_theta_del2           =   1.3318239289984E-01
(PID.TID 0000.0001) %MON dynstat_salt_max             =   3.7391643341025E+01
(PID.TID 0000.0001) %MON dynstat_salt_min             =   2.9806047480809E+01
(PID.TID 0000.0001) %MON dynstat_salt_mean            =   3.4716225165199E+01
(PID.TID 0000.0001) %MON dynstat_salt_sd              =   2.9388585464988E-01
(PID.TID 0000.0001) %MON dynstat_salt_del2            =   2.4801572533390E-02
(PID.TID 0000.0001) %MON advcfl_uvel_max              =   3.0828093510500E-02
(PID.TID 0000.0001) %MON advcfl_vvel_max              =   1.8569903186220E-02
(PID.TID 0000.0001) %MON advcfl_wvel_max              =   1.8480874591121E-01
(PID.TID 0000.0001) %MON advcfl_W_hf_max              =   1.4555347866122E-01
(PID.TID 0000.0001) %MON pe_b_mean                    =   2.0969795778705E-04
(PID.TID 0000.0001) %MON ke_max                       =   1.8407427093359E-02
(PID.TID 0000.0001) %MON ke_mean                      =   2.5087507755110E-04
(PID.TID 0000.0001) %MON ke_vol                       =   1.3226782436723E+18
(PID.TID 0000.0001) %MON vort_r_min                   =  -8.3785623568038E-07
(PID.TID 0000.0001) %MON vort_r_max                   =   6.7477700917012E-07
(PID.TID 0000.0001) %MON vort_a_mean                  =  -2.5205769023347E-05
(PID.TID 0000.0001) %MON vort_a_sd                    =   7.3402856973530E-05
(PID.TID 0000.0001) %MON vort_p_mean                  =  -3.1758669091162E-05
(PID.TID 0000.0001) %MON vort_p_sd                    =   1.3126296905781E-04
(PID.TID 0000.0001) %MON surfExpan_theta_mean         =   1.2399322075300E-05
(PID.TID 0000.0001) %MON surfExpan_salt_mean          =   1.9506647185715E-06
(PID.TID 0000.0001) // =======================================================
(PID.TID 0000.0001) // End MONITOR dynamic field statistics
(PID.TID 0000.0001) // =======================================================
time,SST,SSS,fu,fv,Q,E-P,i0,i1,a,b =   1.8576E+06  6.3553E-01  3.4651E+01 -3.1040E-02 -4.8672E-02  2.6029E+02  0.0000E+00     1     2  2.1667E-01  7.8333E-01
time,fu0,fu1,fu =   1.8576E+06 -3.5633E-02 -1.4435E-02 -3.1040E-02  2.1667E-01  7.8333E-01
 cg2d: Sum(rhs),rhsMax =   1.60357838119296E-13  7.71510903356954E+00
(PID.TID 0000.0001)                    cg2d_init_res =    7.34299200275118E-01
(PID.TID 0000.0001)                       cg2d_iters =    25
(PID.TID 0000.0001)                         cg2d_res =    3.89604437469523E-14
(PID.TID 0000.0001) // =======================================================
(PID.TID 0000.0001) // Begin MONITOR dynamic field statistics
(PID.TID 0000.0001) // =======================================================
(PID.TID 0000.0001) %MON time_tsnumber                =                    44
(PID.TID 0000.0001) %MON time_secondsf                =   1.9008000000000E+06
(PID.TID 0000.0001) %MON dynstat_eta_max              =   8.9426613454524E-01
(PID.TID 0000.0001) %MON dynstat_eta_min              =  -1.1294868523275E+00
(PID.TID 0000.0001) %MON dynstat_eta_mean             =   3.5793190395352E-17
(PID.TID 0000.0001) %MON dynstat_eta_sd               =   4.0665847776726E-01
(PID.TID 0000.0001) %MON dynstat_eta_del2             =   1.9164914069456E-02
(PID.TID 0000.0001) %MON dynstat_uvel_max             =   1.6697025607468E-01
(PID.TID 0000.0001) %MON dynstat_uvel_min             =  -2.2350757315699E-01
(PID.TID 0000.0001) %MON dynstat_uvel_mean            =  -2.6661719650476E-03
(PID.TID 0000.0001) %MON dynstat_uvel_sd              =   1.7122401715217E-02
(PID.TID 0000.0001) %MON dynstat_uvel_del2            =   5.6632059031541E-03
(PID.TID 0000.0001) %MON dynstat_vvel_max             =   1.8369155631106E-01
(PID.TID 0000.0001) %MON dynstat_vvel_min             =  -1.5364506536681E-01
(PID.TID 0000.0001) %MON dynstat_vvel_mean            =   2.7998959632451E-03
(PID.TID 0000.0001) %MON dynstat_vvel_sd              =   1.5334539448812E-02
(PID.TID 0000.0001) %MON dynstat_vvel_del2            =   5.1603272318305E-03
(PID.TID 0000.0001) %MON dynstat_wvel_max             =   2.8844918520414E-04
(PID.TID 0000.0001) %MON dynstat_wvel_min             =  -2.6024371105670E-04
(PID.TID 0000.0001) %MON dynstat_wvel_mean            =  -2.0772493818991E-22
(PID.TID 0000.0001) %MON dynstat_wvel_sd              =   3.0271513848118E-05
(PID.TID 0000.0001) %MON dynstat_wvel_del2            =   1.2348494820619E-05
(PID.TID 0000.0001) %MON dynstat_theta_max            =   2.9606631771412E+01
(PID.TID 0000.0001) %MON dynstat_theta_min            =  -1.9430441349740E+00
(PID.TID 0000.0001) %MON dynstat_theta_mean           =   3.5935535728664E+00
(PID.TID 0000.0001) %MON dynstat_theta_sd             =   4.3474705016735E+00
(PID.TID 0000.0001) %MON dynstat_theta_del2           =   1.3304902296376E-01
(PID.TID 0000.0001) %MON dynstat_salt_max             =   3.7389300454291E+01
(PID.TID 0000.0001) %MON dynstat_salt_min             =   2.9805858536414E+01
(PID.TID 0000.0001) %MON dynstat_salt_mean            =   3.4716205533660E+01
(PID.TID 0000.0001) %MON dynstat_salt_sd              =   2.9382881352662E-01
(PID.TID 0000.0001) %MON dynstat_salt_del2            =   2.4761131747914E-02
(PID.TID 0000.0001) %MON advcfl_uvel_max              =   3.0553748976868E-02
(PID.TID 0000.0001) %MON advcfl_vvel_max              =   1.7844161666434E-02
(PID.TID 0000.0001) %MON advcfl_wvel_max              =   1.7525686264699E-01
(PID.TID 0000.0001) %MON advcfl_W_hf_max              =   1.3805887997477E-01
(PID.TID 0000.0001) %MON pe_b_mean                    =   2.1161227754134E-04
(PID.TID 0000.0001) %MON ke_max                       =   1.8575046671972E-02
(PID.TID 0000.0001) %MON ke_mean                      =   2.4551182040633E-04
(PID.TID 0000.0001) %MON ke_vol                       =   1.3226782436723E+18
(PID.TID 0000.0001) %MON vort_r_min                   =  -8.6003589695705E-07
(PID.TID 0000.0001) %MON vort_r_max                   =   6.7634722291889E-07
(PID.TID 0000.0001) %MON vort_a_mean                  =  -2.5205768980248E-05
(PID.TID 0000.0001) %MON vort_a_sd                    =   7.3402872418196E-05
(PID.TID 0000.0001) %MON vort_p_mean                  =  -3.1758669036859E-05
(PID.TID 0000.0001) %MON vort_p_sd                    =   1.3126302225720E-04
(PID.TID 0000.0001) %MON surfExpan_theta_mean         =   1.2664556069780E-05
(PID.TID 0000.0001) %MON surfExpan_salt_mean          =   1.8150394057099E-06
(PID.TID 0000.0001) // =======================================================
(PID.TID 0000.0001) // End MONITOR dynamic field statistics
(PID.TID 0000.0001) // =======================================================
time,SST,SSS,fu,fv,Q,E-P,i0,i1,a,b =   1.9008E+06  6.1069E-01  3.4646E+01 -3.0687E-02 -4.8012E-02  2.5987E+02  0.0000E+00     1     2  2.3333E-01  7.6667E-01
time,fu0,fu1,fu =   1.9008E+06 -3.5633E-02 -1.4435E-02 -3.0687E-02  2.3333E-01  7.6667E-01
 cg2d: Sum(rhs),rhsMax =  -1.43496325932801E-13  7.94458112975555E+00
(PID.TID 0000.0001)                    cg2d_init_res =    7.06079087595715E-01
(PID.TID 0000.0001)                       cg2d_iters =    25
(PID.TID 0000.0001)                         cg2d_res =    3.40411613107269E-14
(PID.TID 0000.0001) // =======================================================
(PID.TID 0000.0001) // Begin MONITOR dynamic field statistics
(PID.TID 0000.0001) // =======================================================
(PID.TID 0000.0001) %MON time_tsnumber                =                    45
(PID.TID 0000.0001) %MON time_secondsf                =   1.9440000000000E+06
(PID.TID 0000.0001) %MON dynstat_eta_max              =   9.6110825812069E-01
(PID.TID 0000.0001) %MON dynstat_eta_min              =  -1.1438713600283E+00
(PID.TID 0000.0001) %MON dynstat_eta_mean             =   2.0335794301414E-16
(PID.TID 0000.0001) %MON dynstat_eta_sd               =   4.0825438386271E-01
(PID.TID 0000.0001) %MON dynstat_eta_del2             =   1.9223576282245E-02
(PID.TID 0000.0001) %MON dynstat_uvel_max             =   1.4986118774719E-01
(PID.TID 0000.0001) %MON dynstat_uvel_min             =  -2.2190072703343E-01
(PID.TID 0000.0001) %MON dynstat_uvel_mean            =  -2.6064969340836E-03
(PID.TID 0000.0001) %MON dynstat_uvel_sd              =   1.7010500063145E-02
(PID.TID 0000.0001) %MON dynstat_uvel_del2            =   5.6305600579418E-03
(PID.TID 0000.0001) %MON dynstat_vvel_max             =   1.7501479280671E-01
(PID.TID 0000.0001) %MON dynstat_vvel_min             =  -1.5257497975849E-01
(PID.TID 0000.0001) %MON dynstat_vvel_mean            =   2.5297671079504E-03
(PID.TID 0000.0001) %MON dynstat_vvel_sd              =   1.5166624114554E-02
(PID.TID 0000.0001) %MON dynstat_vvel_del2            =   5.1482178086795E-03
(PID.TID 0000.0001) %MON dynstat_wvel_max             =   2.9339932229110E-04
(PID.TID 0000.0001) %MON dynstat_wvel_min             =  -2.4954385734601E-04
(PID.TID 0000.0001) %MON dynstat_wvel_mean            =   5.0240260866403E-24
(PID.TID 0000.0001) %MON dynstat_wvel_sd              =   3.0053919788233E-05
(PID.TID 0000.0001) %MON dynstat_wvel_del2            =   1.2289106745346E-05
(PID.TID 0000.0001) %MON dynstat_theta_max            =   2.9620324185406E+01
(PID.TID 0000.0001) %MON dynstat_theta_min            =  -1.9423409108122E+00
(PID.TID 0000.0001) %MON dynstat_theta_mean           =   3.5934572250424E+00
(PID.TID 0000.0001) %MON dynstat_theta_sd             =   4.3471849659913E+00
(PID.TID 0000.0001) %MON dynstat_theta_del2           =   1.3294006783266E-01
(PID.TID 0000.0001) %MON dynstat_salt_max             =   3.7386927885662E+01
(PID.TID 0000.0001) %MON dynstat_salt_min             =   2.9805585665262E+01
(PID.TID 0000.0001) %MON dynstat_salt_mean            =   3.4716188501654E+01
(PID.TID 0000.0001) %MON dynstat_salt_sd              =   2.9377705110970E-01
(PID.TID 0000.0001) %MON dynstat_salt_del2            =   2.4728554997545E-02
(PID.TID 0000.0001) %MON advcfl_uvel_max              =   3.0307693283549E-02
(PID.TID 0000.0001) %MON advcfl_vvel_max              =   1.7001283671264E-02
(PID.TID 0000.0001) %MON advcfl_wvel_max              =   1.6044266179391E-01
(PID.TID 0000.0001) %MON advcfl_W_hf_max              =   1.2653243911538E-01
(PID.TID 0000.0001) %MON pe_b_mean                    =   2.1327645527104E-04
(PID.TID 0000.0001) %MON ke_max                       =   1.8718020293185E-02
(PID.TID 0000.0001) %MON ke_mean                      =   2.4068794304073E-04
(PID.TID 0000.0001) %MON ke_vol                       =   1.3226782436723E+18
(PID.TID 0000.0001) %MON vort_r_min                   =  -8.8170187425581E-07
(PID.TID 0000.0001) %MON vort_r_max                   =   6.7562802968440E-07
(PID.TID 0000.0001) %MON vort_a_mean                  =  -2.5205768937772E-05
(PID.TID 0000.0001) %MON vort_a_sd                    =   7.3402887357120E-05
(PID.TID 0000.0001) %MON vort_p_mean                  =  -3.1758668983340E-05
(PID.TID 0000.0001) %MON vort_p_sd                    =   1.3126307106252E-04
(PID.TID 0000.0001) %MON surfExpan_theta_mean         =   1.2709296088759E-05
(PID.TID 0000.0001) %MON surfExpan_salt_mean          =   1.6215737510510E-06
(PID.TID 0000.0001) // =======================================================
(PID.TID 0000.0001) // End MONITOR dynamic field statistics
(PID.TID 0000.0001) // =======================================================
time,SST,SSS,fu,fv,Q,E-P,i0,i1,a,b =   1.9440E+06  5.8585E-01  3.4641E+01 -3.0333E-02 -4.7351E-02  2.5945E+02  0.0000E+00     1     2  2.5000E-01  7.5000E-01
time,fu0,fu1,fu =   1.9440E+06 -3.5633E-02 -1.4435E-02 -3.0333E-02  2.5000E-01  7.5000E-01
 cg2d: Sum(rhs),rhsMax =  -3.16482950957209E-13  8.35758900246051E+00
(PID.TID 0000.0001)                    cg2d_init_res =    6.60858920188297E-01
(PID.TID 0000.0001)                       cg2d_iters =    25
(PID.TID 0000.0001)                         cg2d_res =    2.85049749048140E-14
(PID.TID 0000.0001) // =======================================================
(PID.TID 0000.0001) // Begin MONITOR dynamic field statistics
(PID.TID 0000.0001) // =======================================================
(PID.TID 0000.0001) %MON time_tsnumber                =                    46
(PID.TID 0000.0001) %MON time_secondsf                =   1.9872000000000E+06
(PID.TID 0000.0001) %MON dynstat_eta_max              =   1.0102916751336E+00
(PID.TID 0000.0001) %MON dynstat_eta_min              =  -1.1578391980855E+00
(PID.TID 0000.0001) %MON dynstat_eta_mean             =  -1.1180326931540E-16
(PID.TID 0000.0001) %MON dynstat_eta_sd               =   4.0960224841486E-01
(PID.TID 0000.0001) %MON dynstat_eta_del2             =   1.9276128123734E-02
(PID.TID 0000.0001) %MON dynstat_uvel_max             =   1.4410834239978E-01
(PID.TID 0000.0001) %MON dynstat_uvel_min             =  -2.1713287496112E-01
(PID.TID 0000.0001) %MON dynstat_uvel_mean            =  -2.5405783716399E-03
(PID.TID 0000.0001) %MON dynstat_uvel_sd              =   1.6921666740479E-02
(PID.TID 0000.0001) %MON dynstat_uvel_del2            =   5.5959995981086E-03
(PID.TID 0000.0001) %MON dynstat_vvel_max             =   1.7550481146278E-01
(PID.TID 0000.0001) %MON dynstat_vvel_min             =  -1.5083211078439E-01
(PID.TID 0000.0001) %MON dynstat_vvel_mean            =   2.2395098103303E-03
(PID.TID 0000.0001) %MON dynstat_vvel_sd              =   1.5012316183941E-02
(PID.TID 0000.0001) %MON dynstat_vvel_del2            =   5.1361359466841E-03
(PID.TID 0000.0001) %MON dynstat_wvel_max             =   2.9774759125225E-04
(PID.TID 0000.0001) %MON dynstat_wvel_min             =  -2.3942389960050E-04
(PID.TID 0000.0001) %MON dynstat_wvel_mean            =   1.3921124077030E-22
(PID.TID 0000.0001) %MON dynstat_wvel_sd              =   2.9809052159620E-05
(PID.TID 0000.0001) %MON dynstat_wvel_del2            =   1.2218095336497E-05
(PID.TID 0000.0001) %MON dynstat_theta_max            =   2.9632693656823E+01
(PID.TID 0000.0001) %MON dynstat_theta_min            =  -1.9410856516776E+00
(PID.TID 0000.0001) %MON dynstat_theta_mean           =   3.5933636325633E+00
(PID.TID 0000.0001) %MON dynstat_theta_sd             =   4.3468526800563E+00
(PID.TID 0000.0001) %MON dynstat_theta_del2           =   1.3282106438157E-01
(PID.TID 0000.0001) %MON dynstat_salt_max             =   3.7384525591172E+01
(PID.TID 0000.0001) %MON dynstat_salt_min             =   2.9805235607334E+01
(PID.TID 0000.0001) %MON dynstat_salt_mean            =   3.4716174483506E+01
(PID.TID 0000.0001) %MON dynstat_salt_sd              =   2.9373164655037E-01
(PID.TID 0000.0001) %MON dynstat_salt_del2            =   2.4687485133473E-02
(PID.TID 0000.0001) %MON advcfl_uvel_max              =   3.0093113537158E-02
(PID.TID 0000.0001) %MON advcfl_vvel_max              =   1.7048885054224E-02
(PID.TID 0000.0001) %MON advcfl_wvel_max              =   1.4103777080063E-01
(PID.TID 0000.0001) %MON advcfl_W_hf_max              =   1.3058797574638E-01
(PID.TID 0000.0001) %MON pe_b_mean                    =   2.1468705771476E-04
(PID.TID 0000.0001) %MON ke_max                       =   1.8837121045805E-02
(PID.TID 0000.0001) %MON ke_mean                      =   2.3645220928292E-04
(PID.TID 0000.0001) %MON ke_vol                       =   1.3226782436723E+18
(PID.TID 0000.0001) %MON vort_r_min                   =  -9.0277058424907E-07
(PID.TID 0000.0001) %MON vort_r_max                   =   6.7228493037974E-07
(PID.TID 0000.0001) %MON vort_a_mean                  =  -2.5205768896861E-05
(PID.TID 0000.0001) %MON vort_a_sd                    =   7.3402902445716E-05
(PID.TID 0000.0001) %MON vort_p_mean                  =  -3.1758668931793E-05
(PID.TID 0000.0001) %MON vort_p_sd                    =   1.3126311598245E-04
(PID.TID 0000.0001) %MON surfExpan_theta_mean         =   1.2574826143780E-05
(PID.TID 0000.0001) %MON surfExpan_salt_mean          =   1.3827389747079E-06
(PID.TID 0000.0001) // =======================================================
(PID.TID 0000.0001) // End MONITOR dynamic field statistics
(PID.TID 0000.0001) // =======================================================
time,SST,SSS,fu,fv,Q,E-P,i0,i1,a,b =   1.9872E+06  5.6102E-01  3.4636E+01 -2.9980E-02 -4.6691E-02  2.5903E+02  0.0000E+00     1     2  2.6667E-01  7.3333E-01
time,fu0,fu1,fu =   1.9872E+06 -3.5633E-02 -1.4435E-02 -2.9980E-02  2.6667E-01  7.3333E-01
 cg2d: Sum(rhs),rhsMax =   3.81222831080663E-14  8.64096094354986E+00
(PID.TID 0000.0001)                    cg2d_init_res =    6.25864993716028E-01
(PID.TID 0000.0001)                       cg2d_iters =    24
(PID.TID 0000.0001)                         cg2d_res =    9.94423858556217E-14
(PID.TID 0000.0001) // =======================================================
(PID.TID 0000.0001) // Begin MONITOR dynamic field statistics
(PID.TID 0000.0001) // =======================================================
(PID.TID 0000.0001) %MON time_tsnumber                =                    47
(PID.TID 0000.0001) %MON time_secondsf                =   2.0304000000000E+06
(PID.TID 0000.0001) %MON dynstat_eta_max              =   1.0510920924470E+00
(PID.TID 0000.0001) %MON dynstat_eta_min              =  -1.1714910662701E+00
(PID.TID 0000.0001) %MON dynstat_eta_mean             =  -1.5290906248451E-16
(PID.TID 0000.0001) %MON dynstat_eta_sd               =   4.1070471389679E-01
(PID.TID 0000.0001) %MON dynstat_eta_del2             =   1.9329019654021E-02
(PID.TID 0000.0001) %MON dynstat_uvel_max             =   1.4349283624190E-01
(PID.TID 0000.0001) %MON dynstat_uvel_min             =  -2.0943766400149E-01
(PID.TID 0000.0001) %MON dynstat_uvel_mean            =  -2.4663451556652E-03
(PID.TID 0000.0001) %MON dynstat_uvel_sd              =   1.6852877679661E-02
(PID.TID 0000.0001) %MON dynstat_uvel_del2            =   5.5596520560206E-03
(PID.TID 0000.0001) %MON dynstat_vvel_max             =   1.7553918951083E-01
(PID.TID 0000.0001) %MON dynstat_vvel_min             =  -1.4843494379898E-01
(PID.TID 0000.0001) %MON dynstat_vvel_mean            =   1.9335813452430E-03
(PID.TID 0000.0001) %MON dynstat_vvel_sd              =   1.4878205240084E-02
(PID.TID 0000.0001) %MON dynstat_vvel_del2            =   5.1267104183928E-03
(PID.TID 0000.0001) %MON dynstat_wvel_max             =   3.0151804273606E-04
(PID.TID 0000.0001) %MON dynstat_wvel_min             =  -2.3771512885919E-04
(PID.TID 0000.0001) %MON dynstat_wvel_mean            =   2.9470654322178E-22
(PID.TID 0000.0001) %MON dynstat_wvel_sd              =   2.9542380432045E-05
(PID.TID 0000.0001) %MON dynstat_wvel_del2            =   1.2135477950347E-05
(PID.TID 0000.0001) %MON dynstat_theta_max            =   2.9643629921983E+01
(PID.TID 0000.0001) %MON dynstat_theta_min            =  -1.9405386874516E+00
(PID.TID 0000.0001) %MON dynstat_theta_mean           =   3.5932741293803E+00
(PID.TID 0000.0001) %MON dynstat_theta_sd             =   4.3464857216055E+00
(PID.TID 0000.0001) %MON dynstat_theta_del2           =   1.3275568110287E-01
(PID.TID 0000.0001) %MON dynstat_salt_max             =   3.7382093444655E+01
(PID.TID 0000.0001) %MON dynstat_salt_min             =   2.9804815737612E+01
(PID.TID 0000.0001) %MON dynstat_salt_mean            =   3.4716163740725E+01
(PID.TID 0000.0001) %MON dynstat_salt_sd              =   2.9369287820757E-01
(PID.TID 0000.0001) %MON dynstat_salt_del2            =   2.4648340785691E-02
(PID.TID 0000.0001) %MON advcfl_uvel_max              =   2.9912116521049E-02
(PID.TID 0000.0001) %MON advcfl_vvel_max              =   1.7052224605914E-02
(PID.TID 0000.0001) %MON advcfl_wvel_max              =   1.3441811148922E-01
(PID.TID 0000.0001) %MON advcfl_W_hf_max              =   1.3454681218118E-01
(PID.TID 0000.0001) %MON pe_b_mean                    =   2.1584429548127E-04
(PID.TID 0000.0001) %MON ke_max                       =   1.8932967943151E-02
(PID.TID 0000.0001) %MON ke_mean                      =   2.3285502144603E-04
(PID.TID 0000.0001) %MON ke_vol                       =   1.3226782436723E+18
(PID.TID 0000.0001) %MON vort_r_min                   =  -9.2315355074465E-07
(PID.TID 0000.0001) %MON vort_r_max                   =   6.6604283744464E-07
(PID.TID 0000.0001) %MON vort_a_mean                  =  -2.5205768858192E-05
(PID.TID 0000.0001) %MON vort_a_sd                    =   7.3402918220525E-05
(PID.TID 0000.0001) %MON vort_p_mean                  =  -3.1758668883071E-05
(PID.TID 0000.0001) %MON vort_p_sd                    =   1.3126315724789E-04
(PID.TID 0000.0001) %MON surfExpan_theta_mean         =   1.2303422242176E-05
(PID.TID 0000.0001) %MON surfExpan_salt_mean          =   1.1122417479196E-06
(PID.TID 0000.0001) // =======================================================
(PID.TID 0000.0001) // End MONITOR dynamic field statistics
(PID.TID 0000.0001) // =======================================================
time,SST,SSS,fu,fv,Q,E-P,i0,i1,a,b =   2.0304E+06  5.3618E-01  3.4631E+01 -2.9627E-02 -4.6031E-02  2.5861E+02  0.0000E+00     1     2  2.8333E-01  7.1667E-01
time,fu0,fu1,fu =   2.0304E+06 -3.5633E-02 -1.4435E-02 -2.9627E-02  2.8333E-01  7.1667E-01
 cg2d: Sum(rhs),rhsMax =  -1.21999632618497E-13  8.90282405839491E+00
(PID.TID 0000.0001)                    cg2d_init_res =    5.92306207030842E-01
(PID.TID 0000.0001)                       cg2d_iters =    24
(PID.TID 0000.0001)                         cg2d_res =    8.09487691905601E-14
(PID.TID 0000.0001) // =======================================================
(PID.TID 0000.0001) // Begin MONITOR dynamic field statistics
(PID.TID 0000.0001) // =======================================================
(PID.TID 0000.0001) %MON time_tsnumber                =                    48
(PID.TID 0000.0001) %MON time_secondsf                =   2.0736000000000E+06
(PID.TID 0000.0001) %MON dynstat_eta_max              =   1.0809486873753E+00
(PID.TID 0000.0001) %MON dynstat_eta_min              =  -1.1761447302453E+00
(PID.TID 0000.0001) %MON dynstat_eta_mean             =  -1.5318209299335E-16
(PID.TID 0000.0001) %MON dynstat_eta_sd               =   4.1156857019505E-01
(PID.TID 0000.0001) %MON dynstat_eta_del2             =   1.9406437083044E-02
(PID.TID 0000.0001) %MON dynstat_uvel_max             =   1.4243589312065E-01
(PID.TID 0000.0001) %MON dynstat_uvel_min             =  -1.9913988894524E-01
(PID.TID 0000.0001) %MON dynstat_uvel_mean            =  -2.3824281341034E-03
(PID.TID 0000.0001) %MON dynstat_uvel_sd              =   1.6801672466174E-02
(PID.TID 0000.0001) %MON dynstat_uvel_del2            =   5.5242547525696E-03
(PID.TID 0000.0001) %MON dynstat_vvel_max             =   1.7483126264925E-01
(PID.TID 0000.0001) %MON dynstat_vvel_min             =  -1.4739229882767E-01
(PID.TID 0000.0001) %MON dynstat_vvel_mean            =   1.6164918140128E-03
(PID.TID 0000.0001) %MON dynstat_vvel_sd              =   1.4770217304966E-02
(PID.TID 0000.0001) %MON dynstat_vvel_del2            =   5.1170472443237E-03
(PID.TID 0000.0001) %MON dynstat_wvel_max             =   3.0473165416863E-04
(PID.TID 0000.0001) %MON dynstat_wvel_min             =  -2.3865733815131E-04
(PID.TID 0000.0001) %MON dynstat_wvel_mean            =   5.0711901343190E-23
(PID.TID 0000.0001) %MON dynstat_wvel_sd              =   2.9262450641568E-05
(PID.TID 0000.0001) %MON dynstat_wvel_del2            =   1.2050583877473E-05
(PID.TID 0000.0001) %MON dynstat_theta_max            =   2.9654565616162E+01
(PID.TID 0000.0001) %MON dynstat_theta_min            =  -1.9414884310116E+00
(PID.TID 0000.0001) %MON dynstat_theta_mean           =   3.5931894363489E+00
(PID.TID 0000.0001) %MON dynstat_theta_sd             =   4.3460982264914E+00
(PID.TID 0000.0001) %MON dynstat_theta_del2           =   1.3261785161529E-01
(PID.TID 0000.0001) %MON dynstat_salt_max             =   3.7379632325330E+01
(PID.TID 0000.0001) %MON dynstat_salt_min             =   2.9804333463836E+01
(PID.TID 0000.0001) %MON dynstat_salt_mean            =   3.4716156365128E+01
(PID.TID 0000.0001) %MON dynstat_salt_sd              =   2.9366133851502E-01
(PID.TID 0000.0001) %MON dynstat_salt_del2            =   2.4603128925941E-02
(PID.TID 0000.0001) %MON advcfl_uvel_max              =   2.9765810510474E-02
(PID.TID 0000.0001) %MON advcfl_vvel_max              =   1.6983455188202E-02
(PID.TID 0000.0001) %MON advcfl_wvel_max              =   1.3750139538681E-01
(PID.TID 0000.0001) %MON advcfl_W_hf_max              =   1.3667425853566E-01
(PID.TID 0000.0001) %MON pe_b_mean                    =   2.1675324315875E-04
(PID.TID 0000.0001) %MON ke_max                       =   1.9005994998983E-02
(PID.TID 0000.0001) %MON ke_mean                      =   2.2994450410458E-04
(PID.TID 0000.0001) %MON ke_vol                       =   1.3226782436723E+18
(PID.TID 0000.0001) %MON vort_r_min                   =  -9.4276352603267E-07
(PID.TID 0000.0001) %MON vort_r_max                   =   6.5669473381594E-07
(PID.TID 0000.0001) %MON vort_a_mean                  =  -2.5205768822151E-05
(PID.TID 0000.0001) %MON vort_a_sd                    =   7.3402935093316E-05
(PID.TID 0000.0001) %MON vort_p_mean                  =  -3.1758668837660E-05
(PID.TID 0000.0001) %MON vort_p_sd                    =   1.3126319498771E-04
(PID.TID 0000.0001) %MON surfExpan_theta_mean         =   1.1938477321542E-05
(PID.TID 0000.0001) %MON surfExpan_salt_mean          =   8.2460182549333E-07
(PID.TID 0000.0001) // =======================================================
(PID.TID 0000.0001) // End MONITOR dynamic field statistics
(PID.TID 0000.0001) // =======================================================
time,SST,SSS,fu,fv,Q,E-P,i0,i1,a,b =   2.0736E+06  5.1134E-01  3.4627E+01 -2.9273E-02 -4.5370E-02  2.5818E+02  0.0000E+00     1     2  3.0000E-01  7.0000E-01
time,fu0,fu1,fu =   2.0736E+06 -3.5633E-02 -1.4435E-02 -2.9273E-02  3.0000E-01  7.0000E-01
 cg2d: Sum(rhs),rhsMax =   6.90142387682613E-14  8.99099015803162E+00
(PID.TID 0000.0001)                    cg2d_init_res =    5.70825605101103E-01
(PID.TID 0000.0001)                       cg2d_iters =    24
(PID.TID 0000.0001)                         cg2d_res =    8.02879984251652E-14
(PID.TID 0000.0001) // =======================================================
(PID.TID 0000.0001) // Begin MONITOR dynamic field statistics
(PID.TID 0000.0001) // =======================================================
(PID.TID 0000.0001) %MON time_tsnumber                =                    49
(PID.TID 0000.0001) %MON time_secondsf                =   2.1168000000000E+06
(PID.TID 0000.0001) %MON dynstat_eta_max              =   1.0898131519803E+00
(PID.TID 0000.0001) %MON dynstat_eta_min              =  -1.1725936530801E+00
(PID.TID 0000.0001) %MON dynstat_eta_mean             =  -2.2632522201838E-16
(PID.TID 0000.0001) %MON dynstat_eta_sd               =   4.1220727493452E-01
(PID.TID 0000.0001) %MON dynstat_eta_del2             =   1.9438798506220E-02
(PID.TID 0000.0001) %MON dynstat_uvel_max             =   1.4134065976981E-01
(PID.TID 0000.0001) %MON dynstat_uvel_min             =  -1.9929452505397E-01
(PID.TID 0000.0001) %MON dynstat_uvel_mean            =  -2.2881402860848E-03
(PID.TID 0000.0001) %MON dynstat_uvel_sd              =   1.6766412374199E-02
(PID.TID 0000.0001) %MON dynstat_uvel_del2            =   5.4896022181480E-03
(PID.TID 0000.0001) %MON dynstat_vvel_max             =   1.7342956481528E-01
(PID.TID 0000.0001) %MON dynstat_vvel_min             =  -1.4584799017284E-01
(PID.TID 0000.0001) %MON dynstat_vvel_mean            =   1.2927115353979E-03
(PID.TID 0000.0001) %MON dynstat_vvel_sd              =   1.4692857840233E-02
(PID.TID 0000.0001) %MON dynstat_vvel_del2            =   5.1036008661756E-03
(PID.TID 0000.0001) %MON dynstat_wvel_max             =   3.0740730794858E-04
(PID.TID 0000.0001) %MON dynstat_wvel_min             =  -2.3854989860967E-04
(PID.TID 0000.0001) %MON dynstat_wvel_mean            =  -1.1642638699782E-23
(PID.TID 0000.0001) %MON dynstat_wvel_sd              =   2.8979463946244E-05
(PID.TID 0000.0001) %MON dynstat_wvel_del2            =   1.1961391220582E-05
(PID.TID 0000.0001) %MON dynstat_theta_max            =   2.9664417199486E+01
(PID.TID 0000.0001) %MON dynstat_theta_min            =  -1.9438856076458E+00
(PID.TID 0000.0001) %MON dynstat_theta_mean           =   3.5931098534535E+00
(PID.TID 0000.0001) %MON dynstat_theta_sd             =   4.3457010937759E+00
(PID.TID 0000.0001) %MON dynstat_theta_del2           =   1.3249715186901E-01
(PID.TID 0000.0001) %MON dynstat_salt_max             =   3.7380739298278E+01
(PID.TID 0000.0001) %MON dynstat_salt_min             =   2.9803795676130E+01
(PID.TID 0000.0001) %MON dynstat_salt_mean            =   3.4716152283644E+01
(PID.TID 0000.0001) %MON dynstat_salt_sd              =   2.9363748510006E-01
(PID.TID 0000.0001) %MON dynstat_salt_del2            =   2.4555515555497E-02
(PID.TID 0000.0001) %MON advcfl_uvel_max              =   2.9665400124031E-02
(PID.TID 0000.0001) %MON advcfl_vvel_max              =   1.6847291483898E-02
(PID.TID 0000.0001) %MON advcfl_wvel_max              =   1.3867240998008E-01
(PID.TID 0000.0001) %MON advcfl_W_hf_max              =   1.3689136177238E-01
(PID.TID 0000.0001) %MON pe_b_mean                    =   2.1742651490905E-04
(PID.TID 0000.0001) %MON ke_max                       =   1.9056467143951E-02
(PID.TID 0000.0001) %MON ke_mean                      =   2.2776056655440E-04
(PID.TID 0000.0001) %MON ke_vol                       =   1.3226782436723E+18
(PID.TID 0000.0001) %MON vort_r_min                   =  -9.6151736307620E-07
(PID.TID 0000.0001) %MON vort_r_max                   =   6.4410938112387E-07
(PID.TID 0000.0001) %MON vort_a_mean                  =  -2.5205768788933E-05
(PID.TID 0000.0001) %MON vort_a_sd                    =   7.3402953345754E-05
(PID.TID 0000.0001) %MON vort_p_mean                  =  -3.1758668795807E-05
(PID.TID 0000.0001) %MON vort_p_sd                    =   1.3126322893366E-04
(PID.TID 0000.0001) %MON surfExpan_theta_mean         =   1.1520170212352E-05
(PID.TID 0000.0001) %MON surfExpan_salt_mean          =   5.3401265415757E-07
(PID.TID 0000.0001) // =======================================================
(PID.TID 0000.0001) // End MONITOR dynamic field statistics
(PID.TID 0000.0001) // =======================================================
time,SST,SSS,fu,fv,Q,E-P,i0,i1,a,b =   2.1168E+06  4.8650E-01  3.4622E+01 -2.8920E-02 -4.4710E-02  2.5776E+02  0.0000E+00     1     2  3.1667E-01  6.8333E-01
time,fu0,fu1,fu =   2.1168E+06 -3.5633E-02 -1.4435E-02 -2.8920E-02  3.1667E-01  6.8333E-01
 cg2d: Sum(rhs),rhsMax =   4.70873340319145E-14  8.89940296584307E+00
(PID.TID 0000.0001)                    cg2d_init_res =    5.61903456613418E-01
(PID.TID 0000.0001)                       cg2d_iters =    24
(PID.TID 0000.0001)                         cg2d_res =    7.77826088210587E-14
(PID.TID 0000.0001) // =======================================================
(PID.TID 0000.0001) // Begin MONITOR dynamic field statistics
(PID.TID 0000.0001) // =======================================================
(PID.TID 0000.0001) %MON time_tsnumber                =                    50
(PID.TID 0000.0001) %MON time_secondsf                =   2.1600000000000E+06
(PID.TID 0000.0001) %MON dynstat_eta_max              =   1.0770007280142E+00
(PID.TID 0000.0001) %MON dynstat_eta_min              =  -1.1620166454053E+00
(PID.TID 0000.0001) %MON dynstat_eta_mean             =  -3.9341467678727E-17
(PID.TID 0000.0001) %MON dynstat_eta_sd               =   4.1264388221438E-01
(PID.TID 0000.0001) %MON dynstat_eta_del2             =   1.9452214924557E-02
(PID.TID 0000.0001) %MON dynstat_uvel_max             =   1.4042026470782E-01
(PID.TID 0000.0001) %MON dynstat_uvel_min             =  -1.9972327269001E-01
(PID.TID 0000.0001) %MON dynstat_uvel_mean            =  -2.1834092582340E-03
(PID.TID 0000.0001) %MON dynstat_uvel_sd              =   1.6746396613813E-02
(PID.TID 0000.0001) %MON dynstat_uvel_del2            =   5.4566293887504E-03
(PID.TID 0000.0001) %MON dynstat_vvel_max             =   1.7139647785859E-01
(PID.TID 0000.0001) %MON dynstat_vvel_min             =  -1.4380564033971E-01
(PID.TID 0000.0001) %MON dynstat_vvel_mean            =   9.6659396890516E-04
(PID.TID 0000.0001) %MON dynstat_vvel_sd              =   1.4648533561645E-02
(PID.TID 0000.0001) %MON dynstat_vvel_del2            =   5.0892567280862E-03
(PID.TID 0000.0001) %MON dynstat_wvel_max             =   3.0956277453764E-04
(PID.TID 0000.0001) %MON dynstat_wvel_min             =  -2.3696324806968E-04
(PID.TID 0000.0001) %MON dynstat_wvel_mean            =  -3.1056844456547E-22
(PID.TID 0000.0001) %MON dynstat_wvel_sd              =   2.8703440319072E-05
(PID.TID 0000.0001) %MON dynstat_wvel_del2            =   1.1867239122613E-05
(PID.TID 0000.0001) %MON dynstat_theta_max            =   2.9672787434783E+01
(PID.TID 0000.0001) %MON dynstat_theta_min            =  -1.9460975040482E+00
(PID.TID 0000.0001) %MON dynstat_theta_mean           =   3.5930352753737E+00
(PID.TID 0000.0001) %MON dynstat_theta_sd             =   4.3453037749444E+00
(PID.TID 0000.0001) %MON dynstat_theta_del2           =   1.3236663539282E-01
(PID.TID 0000.0001) %MON dynstat_salt_max             =   3.7381877501189E+01
(PID.TID 0000.0001) %MON dynstat_salt_min             =   2.9803208279501E+01
(PID.TID 0000.0001) %MON dynstat_salt_mean            =   3.4716151280858E+01
(PID.TID 0000.0001) %MON dynstat_salt_sd              =   2.9362141173461E-01
(PID.TID 0000.0001) %MON dynstat_salt_del2            =   2.4507570857410E-02
(PID.TID 0000.0001) %MON advcfl_uvel_max              =   3.0094636532818E-02
(PID.TID 0000.0001) %MON advcfl_vvel_max              =   1.6649793389452E-02
(PID.TID 0000.0001) %MON advcfl_wvel_max              =   1.4169798497096E-01
(PID.TID 0000.0001) %MON advcfl_W_hf_max              =   1.3512911637084E-01
(PID.TID 0000.0001) %MON pe_b_mean                    =   2.1788735235487E-04
(PID.TID 0000.0001) %MON ke_max                       =   1.9084532078163E-02
(PID.TID 0000.0001) %MON ke_mean                      =   2.2632840966125E-04
(PID.TID 0000.0001) %MON ke_vol                       =   1.3226782436723E+18
(PID.TID 0000.0001) %MON vort_r_min                   =  -9.7933931773373E-07
(PID.TID 0000.0001) %MON vort_r_max                   =   6.2823765817743E-07
(PID.TID 0000.0001) %MON vort_a_mean                  =  -2.5205768758518E-05
(PID.TID 0000.0001) %MON vort_a_sd                    =   7.3402973135490E-05
(PID.TID 0000.0001) %MON vort_p_mean                  =  -3.1758668757484E-05
(PID.TID 0000.0001) %MON vort_p_sd                    =   1.3126325882781E-04
(PID.TID 0000.0001) %MON surfExpan_theta_mean         =   1.1086224360222E-05
(PID.TID 0000.0001) %MON surfExpan_salt_mean          =   2.5426747213071E-07
(PID.TID 0000.0001) // =======================================================
(PID.TID 0000.0001) // End MONITOR dynamic field statistics
(PID.TID 0000.0001) // =======================================================
time,SST,SSS,fu,fv,Q,E-P,i0,i1,a,b =   2.1600E+06  4.6166E-01  3.4617E+01 -2.8567E-02 -4.4050E-02  2.5734E+02  0.0000E+00     1     2  3.3333E-01  6.6667E-01
time,fu0,fu1,fu =   2.1600E+06 -3.5633E-02 -1.4435E-02 -2.8567E-02  3.3333E-01  6.6667E-01
 cg2d: Sum(rhs),rhsMax =  -3.09016701116605E-13  8.62674623611794E+00
(PID.TID 0000.0001)                    cg2d_init_res =    5.66984016739489E-01
(PID.TID 0000.0001)                       cg2d_iters =    24
(PID.TID 0000.0001)                         cg2d_res =    6.33970313545781E-14
(PID.TID 0000.0001) // =======================================================
(PID.TID 0000.0001) // Begin MONITOR dynamic field statistics
(PID.TID 0000.0001) // =======================================================
(PID.TID 0000.0001) %MON time_tsnumber                =                    51
(PID.TID 0000.0001) %MON time_secondsf                =   2.2032000000000E+06
(PID.TID 0000.0001) %MON dynstat_eta_max              =   1.0424026040139E+00
(PID.TID 0000.0001) %MON dynstat_eta_min              =  -1.1458619832207E+00
(PID.TID 0000.0001) %MON dynstat_eta_mean             =  -2.9716077668293E-16
(PID.TID 0000.0001) %MON dynstat_eta_sd               =   4.1291306131895E-01
(PID.TID 0000.0001) %MON dynstat_eta_del2             =   1.9387603221909E-02
(PID.TID 0000.0001) %MON dynstat_uvel_max             =   1.3765684903945E-01
(PID.TID 0000.0001) %MON dynstat_uvel_min             =  -1.9989897711370E-01
(PID.TID 0000.0001) %MON dynstat_uvel_mean            =  -2.0686933345219E-03
(PID.TID 0000.0001) %MON dynstat_uvel_sd              =   1.6741849042113E-02
(PID.TID 0000.0001) %MON dynstat_uvel_del2            =   5.4264219273760E-03
(PID.TID 0000.0001) %MON dynstat_vvel_max             =   1.6880503666804E-01
(PID.TID 0000.0001) %MON dynstat_vvel_min             =  -1.4138741507887E-01
(PID.TID 0000.0001) %MON dynstat_vvel_mean            =   6.4230363436804E-04
(PID.TID 0000.0001) %MON dynstat_vvel_sd              =   1.4637104445661E-02
(PID.TID 0000.0001) %MON dynstat_vvel_del2            =   5.0719145159625E-03
(PID.TID 0000.0001) %MON dynstat_wvel_max             =   3.1121533482374E-04
(PID.TID 0000.0001) %MON dynstat_wvel_min             =  -2.3393518281526E-04
(PID.TID 0000.0001) %MON dynstat_wvel_mean            =   5.2226646546673E-22
(PID.TID 0000.0001) %MON dynstat_wvel_sd              =   2.8442608844088E-05
(PID.TID 0000.0001) %MON dynstat_wvel_del2            =   1.1765905954882E-05
(PID.TID 0000.0001) %MON dynstat_theta_max            =   2.9679741848351E+01
(PID.TID 0000.0001) %MON dynstat_theta_min            =  -1.9481357225733E+00
(PID.TID 0000.0001) %MON dynstat_theta_mean           =   3.5929652464720E+00
(PID.TID 0000.0001) %MON dynstat_theta_sd             =   4.3449140403901E+00
(PID.TID 0000.0001) %MON dynstat_theta_del2           =   1.3223652128812E-01
(PID.TID 0000.0001) %MON dynstat_salt_max             =   3.7382968851848E+01
(PID.TID 0000.0001) %MON dynstat_salt_min             =   2.9802575832807E+01
(PID.TID 0000.0001) %MON dynstat_salt_mean            =   3.4716153007713E+01
(PID.TID 0000.0001) %MON dynstat_salt_sd              =   2.9361320267581E-01
(PID.TID 0000.0001) %MON dynstat_salt_del2            =   2.4457711869595E-02
(PID.TID 0000.0001) %MON advcfl_uvel_max              =   3.0493082390228E-02
(PID.TID 0000.0001) %MON advcfl_vvel_max              =   1.6398055658650E-02
(PID.TID 0000.0001) %MON advcfl_wvel_max              =   1.6220526025840E-01
(PID.TID 0000.0001) %MON advcfl_W_hf_max              =   1.3133197955697E-01
(PID.TID 0000.0001) %MON pe_b_mean                    =   2.1817171305757E-04
(PID.TID 0000.0001) %MON ke_max                       =   1.9090293279901E-02
(PID.TID 0000.0001) %MON ke_mean                      =   2.2565311237682E-04
(PID.TID 0000.0001) %MON ke_vol                       =   1.3226782436723E+18
(PID.TID 0000.0001) %MON vort_r_min                   =  -9.9616247593577E-07
(PID.TID 0000.0001) %MON vort_r_max                   =   6.3509426997555E-07
(PID.TID 0000.0001) %MON vort_a_mean                  =  -2.5205768730553E-05
(PID.TID 0000.0001) %MON vort_a_sd                    =   7.3402994507629E-05
(PID.TID 0000.0001) %MON vort_p_mean                  =  -3.1758668722248E-05
(PID.TID 0000.0001) %MON vort_p_sd                    =   1.3126328429526E-04
(PID.TID 0000.0001) %MON surfExpan_theta_mean         =   1.0670957536500E-05
(PID.TID 0000.0001) %MON surfExpan_salt_mean          =  -1.9668323174463E-09
(PID.TID 0000.0001) // =======================================================
(PID.TID 0000.0001) // End MONITOR dynamic field statistics
(PID.TID 0000.0001) // =======================================================
time,SST,SSS,fu,fv,Q,E-P,i0,i1,a,b =   2.2032E+06  4.3683E-01  3.4612E+01 -2.8214E-02 -4.3389E-02  2.5692E+02  0.0000E+00     1     2  3.5000E-01  6.5000E-01
time,fu0,fu1,fu =   2.2032E+06 -3.5633E-02 -1.4435E-02 -2.8214E-02  3.5000E-01  6.5000E-01
 cg2d: Sum(rhs),rhsMax =  -4.28004853780806E-13  8.17661272142589E+00
(PID.TID 0000.0001)                    cg2d_init_res =    5.88477114594215E-01
(PID.TID 0000.0001)                       cg2d_iters =    24
(PID.TID 0000.0001)                         cg2d_res =    8.73181242610216E-14
(PID.TID 0000.0001) // =======================================================
(PID.TID 0000.0001) // Begin MONITOR dynamic field statistics
(PID.TID 0000.0001) // =======================================================
(PID.TID 0000.0001) %MON time_tsnumber                =                    52
(PID.TID 0000.0001) %MON time_secondsf                =   2.2464000000000E+06
(PID.TID 0000.0001) %MON dynstat_eta_max              =   9.8650483622084E-01
(PID.TID 0000.0001) %MON dynstat_eta_min              =  -1.1257343823436E+00
(PID.TID 0000.0001) %MON dynstat_eta_mean             =  -3.0217354717782E-17
(PID.TID 0000.0001) %MON dynstat_eta_sd               =   4.1306136186737E-01
(PID.TID 0000.0001) %MON dynstat_eta_del2             =   1.9329289312158E-02
(PID.TID 0000.0001) %MON dynstat_uvel_max             =   1.3501294482099E-01
(PID.TID 0000.0001) %MON dynstat_uvel_min             =  -1.9982317554569E-01
(PID.TID 0000.0001) %MON dynstat_uvel_mean            =  -1.9448913052256E-03
(PID.TID 0000.0001) %MON dynstat_uvel_sd              =   1.6753784918155E-02
(PID.TID 0000.0001) %MON dynstat_uvel_del2            =   5.3967457657158E-03
(PID.TID 0000.0001) %MON dynstat_vvel_max             =   1.6573544604728E-01
(PID.TID 0000.0001) %MON dynstat_vvel_min             =  -1.4224882637114E-01
(PID.TID 0000.0001) %MON dynstat_vvel_mean            =   3.2376159282140E-04
(PID.TID 0000.0001) %MON dynstat_vvel_sd              =   1.4655784535988E-02
(PID.TID 0000.0001) %MON dynstat_vvel_del2            =   5.0530402666485E-03
(PID.TID 0000.0001) %MON dynstat_wvel_max             =   3.1238530374273E-04
(PID.TID 0000.0001) %MON dynstat_wvel_min             =  -2.3573099124320E-04
(PID.TID 0000.0001) %MON dynstat_wvel_mean            =  -4.3448578362426E-22
(PID.TID 0000.0001) %MON dynstat_wvel_sd              =   2.8202206664533E-05
(PID.TID 0000.0001) %MON dynstat_wvel_del2            =   1.1661240223003E-05
(PID.TID 0000.0001) %MON dynstat_theta_max            =   2.9685365578122E+01
(PID.TID 0000.0001) %MON dynstat_theta_min            =  -1.9500114487975E+00
(PID.TID 0000.0001) %MON dynstat_theta_mean           =   3.5928990560871E+00
(PID.TID 0000.0001) %MON dynstat_theta_sd             =   4.3445380915225E+00
(PID.TID 0000.0001) %MON dynstat_theta_del2           =   1.3209915840987E-01
(PID.TID 0000.0001) %MON dynstat_salt_max             =   3.7383994638615E+01
(PID.TID 0000.0001) %MON dynstat_salt_min             =   2.9801901309423E+01
(PID.TID 0000.0001) %MON dynstat_salt_mean            =   3.4716157004240E+01
(PID.TID 0000.0001) %MON dynstat_salt_sd              =   2.9361243225645E-01
(PID.TID 0000.0001) %MON dynstat_salt_del2            =   2.4406813931150E-02
(PID.TID 0000.0001) %MON advcfl_uvel_max              =   3.1106240800836E-02
(PID.TID 0000.0001) %MON advcfl_vvel_max              =   1.6099869545001E-02
(PID.TID 0000.0001) %MON advcfl_wvel_max              =   1.7753660649778E-01
(PID.TID 0000.0001) %MON advcfl_W_hf_max              =   1.2615937567834E-01
(PID.TID 0000.0001) %MON pe_b_mean                    =   2.1832845692442E-04
(PID.TID 0000.0001) %MON ke_max                       =   1.9192043230708E-02
(PID.TID 0000.0001) %MON ke_mean                      =   2.2571650756619E-04
(PID.TID 0000.0001) %MON ke_vol                       =   1.3226782436723E+18
(PID.TID 0000.0001) %MON vort_r_min                   =  -1.0119289670080E-06
(PID.TID 0000.0001) %MON vort_r_max                   =   6.4789940645786E-07
(PID.TID 0000.0001) %MON vort_a_mean                  =  -2.5205768704875E-05
(PID.TID 0000.0001) %MON vort_a_sd                    =   7.3403017402703E-05
(PID.TID 0000.0001) %MON vort_p_mean                  =  -3.1758668689895E-05
(PID.TID 0000.0001) %MON vort_p_sd                    =   1.3126330489388E-04
(PID.TID 0000.0001) %MON surfExpan_theta_mean         =   1.0299420582688E-05
(PID.TID 0000.0001) %MON surfExpan_salt_mean          =  -2.2428921074305E-07
(PID.TID 0000.0001) // =======================================================
(PID.TID 0000.0001) // End MONITOR dynamic field statistics
(PID.TID 0000.0001) // =======================================================
time,SST,SSS,fu,fv,Q,E-P,i0,i1,a,b =   2.2464E+06  4.1199E-01  3.4607E+01 -2.7860E-02 -4.2729E-02  2.5650E+02  0.0000E+00     1     2  3.6667E-01  6.3333E-01
time,fu0,fu1,fu =   2.2464E+06 -3.5633E-02 -1.4435E-02 -2.7860E-02  3.6667E-01  6.3333E-01
 cg2d: Sum(rhs),rhsMax =   8.69582184037654E-14  7.98902779430113E+00
(PID.TID 0000.0001)                    cg2d_init_res =    5.96107244035935E-01
(PID.TID 0000.0001)                       cg2d_iters =    24
(PID.TID 0000.0001)                         cg2d_res =    9.73024325838268E-14
(PID.TID 0000.0001) // =======================================================
(PID.TID 0000.0001) // Begin MONITOR dynamic field statistics
(PID.TID 0000.0001) // =======================================================
(PID.TID 0000.0001) %MON time_tsnumber                =                    53
(PID.TID 0000.0001) %MON time_secondsf                =   2.2896000000000E+06
(PID.TID 0000.0001) %MON dynstat_eta_max              =   9.1039404809143E-01
(PID.TID 0000.0001) %MON dynstat_eta_min              =  -1.1240028951893E+00
(PID.TID 0000.0001) %MON dynstat_eta_mean             =   1.8733380107166E-17
(PID.TID 0000.0001) %MON dynstat_eta_sd               =   4.1314528407098E-01
(PID.TID 0000.0001) %MON dynstat_eta_del2             =   1.9265468374004E-02
(PID.TID 0000.0001) %MON dynstat_uvel_max             =   1.3775403227875E-01
(PID.TID 0000.0001) %MON dynstat_uvel_min             =  -1.9949852345494E-01
(PID.TID 0000.0001) %MON dynstat_uvel_mean            =  -1.8132457402260E-03
(PID.TID 0000.0001) %MON dynstat_uvel_sd              =   1.6783783740909E-02
(PID.TID 0000.0001) %MON dynstat_uvel_del2            =   5.3676689752483E-03
(PID.TID 0000.0001) %MON dynstat_vvel_max             =   1.6227133090876E-01
(PID.TID 0000.0001) %MON dynstat_vvel_min             =  -1.4264535333463E-01
(PID.TID 0000.0001) %MON dynstat_vvel_mean            =   1.4602158206664E-05
(PID.TID 0000.0001) %MON dynstat_vvel_sd              =   1.4699429047654E-02
(PID.TID 0000.0001) %MON dynstat_vvel_del2            =   5.0301976512315E-03
(PID.TID 0000.0001) %MON dynstat_wvel_max             =   3.1309788429561E-04
(PID.TID 0000.0001) %MON dynstat_wvel_min             =  -2.3794152033589E-04
(PID.TID 0000.0001) %MON dynstat_wvel_mean            =   1.7469253253354E-22
(PID.TID 0000.0001) %MON dynstat_wvel_sd              =   2.7983795331158E-05
(PID.TID 0000.0001) %MON dynstat_wvel_del2            =   1.1550988595630E-05
(PID.TID 0000.0001) %MON dynstat_theta_max            =   2.9689754138138E+01
(PID.TID 0000.0001) %MON dynstat_theta_min            =  -1.9517345922522E+00
(PID.TID 0000.0001) %MON dynstat_theta_mean           =   3.5928357826692E+00
(PID.TID 0000.0001) %MON dynstat_theta_sd             =   4.3441812814175E+00
(PID.TID 0000.0001) %MON dynstat_theta_del2           =   1.3198628423991E-01
(PID.TID 0000.0001) %MON dynstat_salt_max             =   3.7384941062054E+01
(PID.TID 0000.0001) %MON dynstat_salt_min             =   2.9801185972402E+01
(PID.TID 0000.0001) %MON dynstat_salt_mean            =   3.4716162734410E+01
(PID.TID 0000.0001) %MON dynstat_salt_sd              =   2.9361900138653E-01
(PID.TID 0000.0001) %MON dynstat_salt_del2            =   2.4355505591332E-02
(PID.TID 0000.0001) %MON advcfl_uvel_max              =   3.1688764822531E-02
(PID.TID 0000.0001) %MON advcfl_vvel_max              =   1.5763358538157E-02
(PID.TID 0000.0001) %MON advcfl_wvel_max              =   1.8745278103128E-01
(PID.TID 0000.0001) %MON advcfl_W_hf_max              =   1.3274388406115E-01
(PID.TID 0000.0001) %MON pe_b_mean                    =   2.1841718207870E-04
(PID.TID 0000.0001) %MON ke_max                       =   1.9439185388295E-02
(PID.TID 0000.0001) %MON ke_mean                      =   2.2647704043242E-04
(PID.TID 0000.0001) %MON ke_vol                       =   1.3226782436723E+18
(PID.TID 0000.0001) %MON vort_r_min                   =  -1.0265907730083E-06
(PID.TID 0000.0001) %MON vort_r_max                   =   6.5962296205539E-07
(PID.TID 0000.0001) %MON vort_a_mean                  =  -2.5205768680825E-05
(PID.TID 0000.0001) %MON vort_a_sd                    =   7.3403041680060E-05
(PID.TID 0000.0001) %MON vort_p_mean                  =  -3.1758668659593E-05
(PID.TID 0000.0001) %MON vort_p_sd                    =   1.3126332018640E-04
(PID.TID 0000.0001) %MON surfExpan_theta_mean         =   9.9981819143199E-06
(PID.TID 0000.0001) %MON surfExpan_salt_mean          =  -4.0364624290939E-07
(PID.TID 0000.0001) // =======================================================
(PID.TID 0000.0001) // End MONITOR dynamic field statistics
(PID.TID 0000.0001) // =======================================================
time,SST,SSS,fu,fv,Q,E-P,i0,i1,a,b =   2.2896E+06  3.8715E-01  3.4602E+01 -2.7507E-02 -4.2069E-02  2.5608E+02  0.0000E+00     1     2  3.8333E-01  6.1667E-01
time,fu0,fu1,fu =   2.2896E+06 -3.5633E-02 -1.4435E-02 -2.7507E-02  3.8333E-01  6.1667E-01
 cg2d: Sum(rhs),rhsMax =  -1.60940705207224E-13  8.10539979139626E+00
(PID.TID 0000.0001)                    cg2d_init_res =    5.84267424687167E-01
(PID.TID 0000.0001)                       cg2d_iters =    25
(PID.TID 0000.0001)                         cg2d_res =    2.50075533416109E-14
(PID.TID 0000.0001) // =======================================================
(PID.TID 0000.0001) // Begin MONITOR dynamic field statistics
(PID.TID 0000.0001) // =======================================================
(PID.TID 0000.0001) %MON time_tsnumber                =                    54
(PID.TID 0000.0001) %MON time_secondsf                =   2.3328000000000E+06
(PID.TID 0000.0001) %MON dynstat_eta_max              =   9.1594062210683E-01
(PID.TID 0000.0001) %MON dynstat_eta_min              =  -1.1671530514292E+00
(PID.TID 0000.0001) %MON dynstat_eta_mean             =  -5.9106398097330E-17
(PID.TID 0000.0001) %MON dynstat_eta_sd               =   4.1322719403767E-01
(PID.TID 0000.0001) %MON dynstat_eta_del2             =   1.9188978026149E-02
(PID.TID 0000.0001) %MON dynstat_uvel_max             =   1.4216080613588E-01
(PID.TID 0000.0001) %MON dynstat_uvel_min             =  -1.9892897878889E-01
(PID.TID 0000.0001) %MON dynstat_uvel_mean            =  -1.6752477200367E-03
(PID.TID 0000.0001) %MON dynstat_uvel_sd              =   1.6833691045108E-02
(PID.TID 0000.0001) %MON dynstat_uvel_del2            =   5.3412048140015E-03
(PID.TID 0000.0001) %MON dynstat_vvel_max             =   1.6239621595187E-01
(PID.TID 0000.0001) %MON dynstat_vvel_min             =  -1.4258600082071E-01
(PID.TID 0000.0001) %MON dynstat_vvel_mean            =  -2.8186322819931E-04
(PID.TID 0000.0001) %MON dynstat_vvel_sd              =   1.4761166787676E-02
(PID.TID 0000.0001) %MON dynstat_vvel_del2            =   5.0025530579439E-03
(PID.TID 0000.0001) %MON dynstat_wvel_max             =   3.1338444734475E-04
(PID.TID 0000.0001) %MON dynstat_wvel_min             =  -2.3965877921367E-04
(PID.TID 0000.0001) %MON dynstat_wvel_mean            =   1.4270608666209E-22
(PID.TID 0000.0001) %MON dynstat_wvel_sd              =   2.7785303984530E-05
(PID.TID 0000.0001) %MON dynstat_wvel_del2            =   1.1432364824194E-05
(PID.TID 0000.0001) %MON dynstat_theta_max            =   2.9693007141526E+01
(PID.TID 0000.0001) %MON dynstat_theta_min            =  -1.9533129747369E+00
(PID.TID 0000.0001) %MON dynstat_theta_mean           =   3.5927743345292E+00
(PID.TID 0000.0001) %MON dynstat_theta_sd             =   4.3438459367650E+00
(PID.TID 0000.0001) %MON dynstat_theta_del2           =   1.3186336729037E-01
(PID.TID 0000.0001) %MON dynstat_salt_max             =   3.7385799318250E+01
(PID.TID 0000.0001) %MON dynstat_salt_min             =   2.9800429325401E+01
(PID.TID 0000.0001) %MON dynstat_salt_mean            =   3.4716169606142E+01
(PID.TID 0000.0001) %MON dynstat_salt_sd              =   2.9363224072968E-01
(PID.TID 0000.0001) %MON dynstat_salt_del2            =   2.4307251644382E-02
(PID.TID 0000.0001) %MON advcfl_uvel_max              =   3.2231077860009E-02
(PID.TID 0000.0001) %MON advcfl_vvel_max              =   1.5775490118637E-02
(PID.TID 0000.0001) %MON advcfl_wvel_max              =   1.9190205440881E-01
(PID.TID 0000.0001) %MON advcfl_W_hf_max              =   1.4178520209990E-01
(PID.TID 0000.0001) %MON pe_b_mean                    =   2.1850379721523E-04
(PID.TID 0000.0001) %MON ke_max                       =   1.9647923655390E-02
(PID.TID 0000.0001) %MON ke_mean                      =   2.2787268566984E-04
(PID.TID 0000.0001) %MON ke_vol                       =   1.3226782436723E+18
(PID.TID 0000.0001) %MON vort_r_min                   =  -1.0401092439603E-06
(PID.TID 0000.0001) %MON vort_r_max                   =   6.7020947318033E-07
(PID.TID 0000.0001) %MON vort_a_mean                  =  -2.5205768657829E-05
(PID.TID 0000.0001) %MON vort_a_sd                    =   7.3403067129243E-05
(PID.TID 0000.0001) %MON vort_p_mean                  =  -3.1758668630619E-05
(PID.TID 0000.0001) %MON vort_p_sd                    =   1.3126332977109E-04
(PID.TID 0000.0001) %MON surfExpan_theta_mean         =   9.7819308048529E-06
(PID.TID 0000.0001) %MON surfExpan_salt_mean          =  -5.3450736178815E-07
(PID.TID 0000.0001) // =======================================================
(PID.TID 0000.0001) // End MONITOR dynamic field statistics
(PID.TID 0000.0001) // =======================================================
time,SST,SSS,fu,fv,Q,E-P,i0,i1,a,b =   2.3328E+06  3.6231E-01  3.4597E+01 -2.7154E-02 -4.1408E-02  2.5565E+02  0.0000E+00     1     2  4.0000E-01  6.0000E-01
time,fu0,fu1,fu =   2.3328E+06 -3.5633E-02 -1.4435E-02 -2.7154E-02  4.0000E-01  6.0000E-01
 cg2d: Sum(rhs),rhsMax =  -3.55687701514285E-14  8.20893301371222E+00
(PID.TID 0000.0001)                    cg2d_init_res =    5.74919377317372E-01
(PID.TID 0000.0001)                       cg2d_iters =    25
(PID.TID 0000.0001)                         cg2d_res =    2.53334426030343E-14
(PID.TID 0000.0001) // =======================================================
(PID.TID 0000.0001) // Begin MONITOR dynamic field statistics
(PID.TID 0000.0001) // =======================================================
(PID.TID 0000.0001) %MON time_tsnumber                =                    55
(PID.TID 0000.0001) %MON time_secondsf                =   2.3760000000000E+06
(PID.TID 0000.0001) %MON dynstat_eta_max              =   9.2848443173842E-01
(PID.TID 0000.0001) %MON dynstat_eta_min              =  -1.2045150260949E+00
(PID.TID 0000.0001) %MON dynstat_eta_mean             =  -1.0945166791735E-16
(PID.TID 0000.0001) %MON dynstat_eta_sd               =   4.1336959881783E-01
(PID.TID 0000.0001) %MON dynstat_eta_del2             =   1.9091581578880E-02
(PID.TID 0000.0001) %MON dynstat_uvel_max             =   1.5077056032569E-01
(PID.TID 0000.0001) %MON dynstat_uvel_min             =  -1.9811985440637E-01
(PID.TID 0000.0001) %MON dynstat_uvel_mean            =  -1.5325440209747E-03
(PID.TID 0000.0001) %MON dynstat_uvel_sd              =   1.6905273988446E-02
(PID.TID 0000.0001) %MON dynstat_uvel_del2            =   5.3153332674396E-03
(PID.TID 0000.0001) %MON dynstat_vvel_max             =   1.6338440919401E-01
(PID.TID 0000.0001) %MON dynstat_vvel_min             =  -1.4209152982804E-01
(PID.TID 0000.0001) %MON dynstat_vvel_mean            =  -5.6267387637316E-04
(PID.TID 0000.0001) %MON dynstat_vvel_sd              =   1.4833258352281E-02
(PID.TID 0000.0001) %MON dynstat_vvel_del2            =   4.9721057178640E-03
(PID.TID 0000.0001) %MON dynstat_wvel_max             =   3.1470706566252E-04
(PID.TID 0000.0001) %MON dynstat_wvel_min             =  -2.4070180095353E-04
(PID.TID 0000.0001) %MON dynstat_wvel_mean            =   5.4808759930574E-22
(PID.TID 0000.0001) %MON dynstat_wvel_sd              =   2.7601749365843E-05
(PID.TID 0000.0001) %MON dynstat_wvel_del2            =   1.1309347680760E-05
(PID.TID 0000.0001) %MON dynstat_theta_max            =   2.9716306052592E+01
(PID.TID 0000.0001) %MON dynstat_theta_min            =  -1.9547517611187E+00
(PID.TID 0000.0001) %MON dynstat_theta_mean           =   3.5927135105426E+00
(PID.TID 0000.0001) %MON dynstat_theta_sd             =   4.3435331134120E+00
(PID.TID 0000.0001) %MON dynstat_theta_del2           =   1.3176900373424E-01
(PID.TID 0000.0001) %MON dynstat_salt_max             =   3.7386565442153E+01
(PID.TID 0000.0001) %MON dynstat_salt_min             =   2.9799629404332E+01
(PID.TID 0000.0001) %MON dynstat_salt_mean            =   3.4716177016720E+01
(PID.TID 0000.0001) %MON dynstat_salt_sd              =   2.9365153661867E-01
(PID.TID 0000.0001) %MON dynstat_salt_del2            =   2.4259344469112E-02
(PID.TID 0000.0001) %MON advcfl_uvel_max              =   3.2724295661734E-02
(PID.TID 0000.0001) %MON advcfl_vvel_max              =   1.5871485167755E-02
(PID.TID 0000.0001) %MON advcfl_wvel_max              =   1.9100886049338E-01
(PID.TID 0000.0001) %MON advcfl_W_hf_max              =   1.5808319834173E-01
(PID.TID 0000.0001) %MON pe_b_mean                    =   2.1865442305589E-04
(PID.TID 0000.0001) %MON ke_max                       =   1.9816498228729E-02
(PID.TID 0000.0001) %MON ke_mean                      =   2.2982624353059E-04
(PID.TID 0000.0001) %MON ke_vol                       =   1.3226782436723E+18
(PID.TID 0000.0001) %MON vort_r_min                   =  -1.0524526557593E-06
(PID.TID 0000.0001) %MON vort_r_max                   =   6.7961217854457E-07
(PID.TID 0000.0001) %MON vort_a_mean                  =  -2.5205768635291E-05
(PID.TID 0000.0001) %MON vort_a_sd                    =   7.3403093489500E-05
(PID.TID 0000.0001) %MON vort_p_mean                  =  -3.1758668602221E-05
(PID.TID 0000.0001) %MON vort_p_sd                    =   1.3126333333973E-04
(PID.TID 0000.0001) %MON surfExpan_theta_mean         =   9.6621986800459E-06
(PID.TID 0000.0001) %MON surfExpan_salt_mean          =  -6.1384979935610E-07
(PID.TID 0000.0001) // =======================================================
(PID.TID 0000.0001) // End MONITOR dynamic field statistics
(PID.TID 0000.0001) // =======================================================
time,SST,SSS,fu,fv,Q,E-P,i0,i1,a,b =   2.3760E+06  3.3747E-01  3.4592E+01 -2.6800E-02 -4.0748E-02  2.5523E+02  0.0000E+00     1     2  4.1667E-01  5.8333E-01
time,fu0,fu1,fu =   2.3760E+06 -3.5633E-02 -1.4435E-02 -2.6800E-02  4.1667E-01  5.8333E-01
 cg2d: Sum(rhs),rhsMax =   6.93889390390723E-16  8.29950274637414E+00
(PID.TID 0000.0001)                    cg2d_init_res =    5.66184511301872E-01
(PID.TID 0000.0001)                       cg2d_iters =    25
(PID.TID 0000.0001)                         cg2d_res =    2.50401699166921E-14
(PID.TID 0000.0001) // =======================================================
(PID.TID 0000.0001) // Begin MONITOR dynamic field statistics
(PID.TID 0000.0001) // =======================================================
(PID.TID 0000.0001) %MON time_tsnumber                =                    56
(PID.TID 0000.0001) %MON time_secondsf                =   2.4192000000000E+06
(PID.TID 0000.0001) %MON dynstat_eta_max              =   9.3901558119588E-01
(PID.TID 0000.0001) %MON dynstat_eta_min              =  -1.2357047487216E+00
(PID.TID 0000.0001) %MON dynstat_eta_mean             =  -1.5282726146481E-16
(PID.TID 0000.0001) %MON dynstat_eta_sd               =   4.1362867380552E-01
(PID.TID 0000.0001) %MON dynstat_eta_del2             =   1.9018800007678E-02
(PID.TID 0000.0001) %MON dynstat_uvel_max             =   1.6200892833544E-01
(PID.TID 0000.0001) %MON dynstat_uvel_min             =  -1.9707775940706E-01
(PID.TID 0000.0001) %MON dynstat_uvel_mean            =  -1.3868505536288E-03
(PID.TID 0000.0001) %MON dynstat_uvel_sd              =   1.6999872171453E-02
(PID.TID 0000.0001) %MON dynstat_uvel_del2            =   5.2900757474790E-03
(PID.TID 0000.0001) %MON dynstat_vvel_max             =   1.6417346157752E-01
(PID.TID 0000.0001) %MON dynstat_vvel_min             =  -1.4119297436067E-01
(PID.TID 0000.0001) %MON dynstat_vvel_mean            =  -8.2524070432013E-04
(PID.TID 0000.0001) %MON dynstat_vvel_sd              =   1.4908027557857E-02
(PID.TID 0000.0001) %MON dynstat_vvel_del2            =   4.9395242330252E-03
(PID.TID 0000.0001) %MON dynstat_wvel_max             =   3.1961806826700E-04
(PID.TID 0000.0001) %MON dynstat_wvel_min             =  -2.4090389779249E-04
(PID.TID 0000.0001) %MON dynstat_wvel_mean            =  -3.8613660093168E-26
(PID.TID 0000.0001) %MON dynstat_wvel_sd              =   2.7426400920779E-05
(PID.TID 0000.0001) %MON dynstat_wvel_del2            =   1.1185579739888E-05
(PID.TID 0000.0001) %MON dynstat_theta_max            =   2.9759525002388E+01
(PID.TID 0000.0001) %MON dynstat_theta_min            =  -1.9560516421394E+00
(PID.TID 0000.0001) %MON dynstat_theta_mean           =   3.5926520937595E+00
(PID.TID 0000.0001) %MON dynstat_theta_sd             =   4.3432424256425E+00
(PID.TID 0000.0001) %MON dynstat_theta_del2           =   1.3163318176720E-01
(PID.TID 0000.0001) %MON dynstat_salt_max             =   3.7387239753571E+01
(PID.TID 0000.0001) %MON dynstat_salt_min             =   2.9798782921961E+01
(PID.TID 0000.0001) %MON dynstat_salt_mean            =   3.4716184375431E+01
(PID.TID 0000.0001) %MON dynstat_salt_sd              =   2.9367602050434E-01
(PID.TID 0000.0001) %MON dynstat_salt_del2            =   2.4211566330131E-02
(PID.TID 0000.0001) %MON advcfl_uvel_max              =   3.3166863116446E-02
(PID.TID 0000.0001) %MON advcfl_vvel_max              =   1.5948135279373E-02
(PID.TID 0000.0001) %MON advcfl_wvel_max              =   1.8508152618342E-01
(PID.TID 0000.0001) %MON advcfl_W_hf_max              =   1.7011991280439E-01
(PID.TID 0000.0001) %MON pe_b_mean                    =   2.1892858759946E-04
(PID.TID 0000.0001) %MON ke_max                       =   1.9943664043396E-02
(PID.TID 0000.0001) %MON ke_mean                      =   2.3225209636929E-04
(PID.TID 0000.0001) %MON ke_vol                       =   1.3226782436723E+18
(PID.TID 0000.0001) %MON vort_r_min                   =  -1.0635934260230E-06
(PID.TID 0000.0001) %MON vort_r_max                   =   6.8779305237326E-07
(PID.TID 0000.0001) %MON vort_a_mean                  =  -2.5205768612673E-05
(PID.TID 0000.0001) %MON vort_a_sd                    =   7.3403120466559E-05
(PID.TID 0000.0001) %MON vort_p_mean                  =  -3.1758668573723E-05
(PID.TID 0000.0001) %MON vort_p_sd                    =   1.3126333069726E-04
(PID.TID 0000.0001) %MON surfExpan_theta_mean         =   9.6452858770591E-06
(PID.TID 0000.0001) %MON surfExpan_salt_mean          =  -6.4134738740976E-07
(PID.TID 0000.0001) // =======================================================
(PID.TID 0000.0001) // End MONITOR dynamic field statistics
(PID.TID 0000.0001) // =======================================================
time,SST,SSS,fu,fv,Q,E-P,i0,i1,a,b =   2.4192E+06  3.1264E-01  3.4587E+01 -2.6447E-02 -4.0088E-02  2.5481E+02  0.0000E+00     1     2  4.3333E-01  5.6667E-01
time,fu0,fu1,fu =   2.4192E+06 -3.5633E-02 -1.4435E-02 -2.6447E-02  4.3333E-01  5.6667E-01
 cg2d: Sum(rhs),rhsMax =   1.33018596137902E-13  8.37678260602299E+00
(PID.TID 0000.0001)                    cg2d_init_res =    5.56435390592570E-01
(PID.TID 0000.0001)                       cg2d_iters =    25
(PID.TID 0000.0001)                         cg2d_res =    2.43338725015982E-14
(PID.TID 0000.0001) // =======================================================
(PID.TID 0000.0001) // Begin MONITOR dynamic field statistics
(PID.TID 0000.0001) // =======================================================
(PID.TID 0000.0001) %MON time_tsnumber                =                    57
(PID.TID 0000.0001) %MON time_secondsf                =   2.4624000000000E+06
(PID.TID 0000.0001) %MON dynstat_eta_max              =   9.9351498985335E-01
(PID.TID 0000.0001) %MON dynstat_eta_min              =  -1.2605191083454E+00
(PID.TID 0000.0001) %MON dynstat_eta_mean             =   9.7918387446733E-17
(PID.TID 0000.0001) %MON dynstat_eta_sd               =   4.1404813199319E-01
(PID.TID 0000.0001) %MON dynstat_eta_del2             =   1.9021619629899E-02
(PID.TID 0000.0001) %MON dynstat_uvel_max             =   1.7225779427423E-01
(PID.TID 0000.0001) %MON dynstat_uvel_min             =  -1.9581046419892E-01
(PID.TID 0000.0001) %MON dynstat_uvel_mean            =  -1.2398782611170E-03
(PID.TID 0000.0001) %MON dynstat_uvel_sd              =   1.7118073027498E-02
(PID.TID 0000.0001) %MON dynstat_uvel_del2            =   5.2659160008827E-03
(PID.TID 0000.0001) %MON dynstat_vvel_max             =   1.6477176494867E-01
(PID.TID 0000.0001) %MON dynstat_vvel_min             =  -1.3992965427281E-01
(PID.TID 0000.0001) %MON dynstat_vvel_mean            =  -1.0673623948325E-03
(PID.TID 0000.0001) %MON dynstat_vvel_sd              =   1.4978719201120E-02
(PID.TID 0000.0001) %MON dynstat_vvel_del2            =   4.9060861699827E-03
(PID.TID 0000.0001) %MON dynstat_wvel_max             =   3.2423627128654E-04
(PID.TID 0000.0001) %MON dynstat_wvel_min             =  -2.4012191670557E-04
(PID.TID 0000.0001) %MON dynstat_wvel_mean            =  -5.2795850423309E-22
(PID.TID 0000.0001) %MON dynstat_wvel_sd              =   2.7252266573434E-05
(PID.TID 0000.0001) %MON dynstat_wvel_del2            =   1.1061638047230E-05
(PID.TID 0000.0001) %MON dynstat_theta_max            =   2.9794185336657E+01
(PID.TID 0000.0001) %MON dynstat_theta_min            =  -1.9572100394458E+00
(PID.TID 0000.0001) %MON dynstat_theta_mean           =   3.5925889222192E+00
(PID.TID 0000.0001) %MON dynstat_theta_sd             =   4.3429714771458E+00
(PID.TID 0000.0001) %MON dynstat_theta_del2           =   1.3149047706067E-01
(PID.TID 0000.0001) %MON dynstat_salt_max             =   3.7387826361964E+01
(PID.TID 0000.0001) %MON dynstat_salt_min             =   2.9797885594184E+01
(PID.TID 0000.0001) %MON dynstat_salt_mean            =   3.4716191133636E+01
(PID.TID 0000.0001) %MON dynstat_salt_sd              =   2.9370473082377E-01
(PID.TID 0000.0001) %MON dynstat_salt_del2            =   2.4163230660146E-02
(PID.TID 0000.0001) %MON advcfl_uvel_max              =   3.3552598482793E-02
(PID.TID 0000.0001) %MON advcfl_vvel_max              =   1.6006255654064E-02
(PID.TID 0000.0001) %MON advcfl_wvel_max              =   1.9415361765039E-01
(PID.TID 0000.0001) %MON advcfl_W_hf_max              =   1.7757373869972E-01
(PID.TID 0000.0001) %MON pe_b_mean                    =   2.1937284089819E-04
(PID.TID 0000.0001) %MON ke_max                       =   2.0028681700003E-02
(PID.TID 0000.0001) %MON ke_mean                      =   2.3506308091792E-04
(PID.TID 0000.0001) %MON ke_vol                       =   1.3226782436723E+18
(PID.TID 0000.0001) %MON vort_r_min                   =  -1.0735014774394E-06
(PID.TID 0000.0001) %MON vort_r_max                   =   6.9472237104630E-07
(PID.TID 0000.0001) %MON vort_a_mean                  =  -2.5205768589468E-05
(PID.TID 0000.0001) %MON vort_a_sd                    =   7.3403147749685E-05
(PID.TID 0000.0001) %MON vort_p_mean                  =  -3.1758668544486E-05
(PID.TID 0000.0001) %MON vort_p_sd                    =   1.3126332181884E-04
(PID.TID 0000.0001) %MON surfExpan_theta_mean         =   9.7324551385013E-06
(PID.TID 0000.0001) %MON surfExpan_salt_mean          =  -6.1914931267350E-07
(PID.TID 0000.0001) // =======================================================
(PID.TID 0000.0001) // End MONITOR dynamic field statistics
(PID.TID 0000.0001) // =======================================================
time,SST,SSS,fu,fv,Q,E-P,i0,i1,a,b =   2.4624E+06  2.8780E-01  3.4582E+01 -2.6094E-02 -3.9427E-02  2.5439E+02  0.0000E+00     1     2  4.5000E-01  5.5000E-01
time,fu0,fu1,fu =   2.4624E+06 -3.5633E-02 -1.4435E-02 -2.6094E-02  4.5000E-01  5.5000E-01
 cg2d: Sum(rhs),rhsMax =  -3.09696712719187E-13  9.30280231906771E+00
(PID.TID 0000.0001)                    cg2d_init_res =    4.94074555545031E-01
(PID.TID 0000.0001)                       cg2d_iters =    24
(PID.TID 0000.0001)                         cg2d_res =    9.76759322789119E-14
(PID.TID 0000.0001) // =======================================================
(PID.TID 0000.0001) // Begin MONITOR dynamic field statistics
(PID.TID 0000.0001) // =======================================================
(PID.TID 0000.0001) %MON time_tsnumber                =                    58
(PID.TID 0000.0001) %MON time_secondsf                =   2.5056000000000E+06
(PID.TID 0000.0001) %MON dynstat_eta_max              =   1.1044689930387E+00
(PID.TID 0000.0001) %MON dynstat_eta_min              =  -1.2789240710312E+00
(PID.TID 0000.0001) %MON dynstat_eta_mean             =   2.0610913538033E-17
(PID.TID 0000.0001) %MON dynstat_eta_sd               =   4.1465459914891E-01
(PID.TID 0000.0001) %MON dynstat_eta_del2             =   1.9068252221535E-02
(PID.TID 0000.0001) %MON dynstat_uvel_max             =   1.8136107635473E-01
(PID.TID 0000.0001) %MON dynstat_uvel_min             =  -1.9432668856618E-01
(PID.TID 0000.0001) %MON dynstat_uvel_mean            =  -1.0932691605898E-03
(PID.TID 0000.0001) %MON dynstat_uvel_sd              =   1.7259466708618E-02
(PID.TID 0000.0001) %MON dynstat_uvel_del2            =   5.2433550462520E-03
(PID.TID 0000.0001) %MON dynstat_vvel_max             =   1.6519606407437E-01
(PID.TID 0000.0001) %MON dynstat_vvel_min             =  -1.3988687241405E-01
(PID.TID 0000.0001) %MON dynstat_vvel_mean            =  -1.2872393239135E-03
(PID.TID 0000.0001) %MON dynstat_vvel_sd              =   1.5040167900695E-02
(PID.TID 0000.0001) %MON dynstat_vvel_del2            =   4.8721949336292E-03
(PID.TID 0000.0001) %MON dynstat_wvel_max             =   3.2857881937700E-04
(PID.TID 0000.0001) %MON dynstat_wvel_min             =  -2.3824105024010E-04
(PID.TID 0000.0001) %MON dynstat_wvel_mean            =   2.9459969557601E-22
(PID.TID 0000.0001) %MON dynstat_wvel_sd              =   2.7073377300250E-05
(PID.TID 0000.0001) %MON dynstat_wvel_del2            =   1.0937930621477E-05
(PID.TID 0000.0001) %MON dynstat_theta_max            =   2.9820114955418E+01
(PID.TID 0000.0001) %MON dynstat_theta_min            =  -1.9582218922619E+00
(PID.TID 0000.0001) %MON dynstat_theta_mean           =   3.5925228851443E+00
(PID.TID 0000.0001) %MON dynstat_theta_sd             =   4.3427160466945E+00
(PID.TID 0000.0001) %MON dynstat_theta_del2           =   1.3139085462397E-01
(PID.TID 0000.0001) %MON dynstat_salt_max             =   3.7388336077668E+01
(PID.TID 0000.0001) %MON dynstat_salt_min             =   2.9796932503681E+01
(PID.TID 0000.0001) %MON dynstat_salt_mean            =   3.4716196805588E+01
(PID.TID 0000.0001) %MON dynstat_salt_sd              =   2.9373628657903E-01
(PID.TID 0000.0001) %MON dynstat_salt_del2            =   2.4121039852681E-02
(PID.TID 0000.0001) %MON advcfl_uvel_max              =   3.3876593846103E-02
(PID.TID 0000.0001) %MON advcfl_vvel_max              =   1.6047472911656E-02
(PID.TID 0000.0001) %MON advcfl_wvel_max              =   2.0392115587564E-01
(PID.TID 0000.0001) %MON advcfl_W_hf_max              =   1.8493529009709E-01
(PID.TID 0000.0001) %MON pe_b_mean                    =   2.2001595385023E-04
(PID.TID 0000.0001) %MON ke_max                       =   2.0071273163262E-02
(PID.TID 0000.0001) %MON ke_mean                      =   2.3817655740719E-04
(PID.TID 0000.0001) %MON ke_vol                       =   1.3226782436723E+18
(PID.TID 0000.0001) %MON vort_r_min                   =  -1.0821419372900E-06
(PID.TID 0000.0001) %MON vort_r_max                   =   7.0037801169272E-07
(PID.TID 0000.0001) %MON vort_a_mean                  =  -2.5205768565212E-05
(PID.TID 0000.0001) %MON vort_a_sd                    =   7.3403175026465E-05
(PID.TID 0000.0001) %MON vort_p_mean                  =  -3.1758668513923E-05
(PID.TID 0000.0001) %MON vort_p_sd                    =   1.3126330682207E-04
(PID.TID 0000.0001) %MON surfExpan_theta_mean         =   9.9221170084861E-06
(PID.TID 0000.0001) %MON surfExpan_salt_mean          =  -5.5118762490140E-07
(PID.TID 0000.0001) // =======================================================
(PID.TID 0000.0001) // End MONITOR dynamic field statistics
(PID.TID 0000.0001) // =======================================================
time,SST,SSS,fu,fv,Q,E-P,i0,i1,a,b =   2.5056E+06  2.6296E-01  3.4578E+01 -2.5740E-02 -3.8767E-02  2.5397E+02  0.0000E+00     1     2  4.6667E-01  5.3333E-01
time,fu0,fu1,fu =   2.5056E+06 -3.5633E-02 -1.4435E-02 -2.5740E-02  4.6667E-01  5.3333E-01
 cg2d: Sum(rhs),rhsMax =   1.29063426612674E-15  1.01469446575219E+01
(PID.TID 0000.0001)                    cg2d_init_res =    4.43535532684781E-01
(PID.TID 0000.0001)                       cg2d_iters =    24
(PID.TID 0000.0001)                         cg2d_res =    8.69817333189166E-14
(PID.TID 0000.0001) // =======================================================
(PID.TID 0000.0001) // Begin MONITOR dynamic field statistics
(PID.TID 0000.0001) // =======================================================
(PID.TID 0000.0001) %MON time_tsnumber                =                    59
(PID.TID 0000.0001) %MON time_secondsf                =   2.5488000000000E+06
(PID.TID 0000.0001) %MON dynstat_eta_max              =   1.2028027315484E+00
(PID.TID 0000.0001) %MON dynstat_eta_min              =  -1.2910385382574E+00
(PID.TID 0000.0001) %MON dynstat_eta_mean             =   4.8470254884949E-17
(PID.TID 0000.0001) %MON dynstat_eta_sd               =   4.1545532425243E-01
(PID.TID 0000.0001) %MON dynstat_eta_del2             =   1.9099403650163E-02
(PID.TID 0000.0001) %MON dynstat_uvel_max             =   1.8917861387946E-01
(PID.TID 0000.0001) %MON dynstat_uvel_min             =  -1.9263583572116E-01
(PID.TID 0000.0001) %MON dynstat_uvel_mean            =  -9.4853693295624E-04
(PID.TID 0000.0001) %MON dynstat_uvel_sd              =   1.7422469131273E-02
(PID.TID 0000.0001) %MON dynstat_uvel_del2            =   5.2225329058015E-03
(PID.TID 0000.0001) %MON dynstat_vvel_max             =   1.6547075871425E-01
(PID.TID 0000.0001) %MON dynstat_vvel_min             =  -1.4120126573191E-01
(PID.TID 0000.0001) %MON dynstat_vvel_mean            =  -1.4834799528311E-03
(PID.TID 0000.0001) %MON dynstat_vvel_sd              =   1.5089214169566E-02
(PID.TID 0000.0001) %MON dynstat_vvel_del2            =   4.8388796650580E-03
(PID.TID 0000.0001) %MON dynstat_wvel_max             =   3.3266515636367E-04
(PID.TID 0000.0001) %MON dynstat_wvel_min             =  -2.3517929008385E-04
(PID.TID 0000.0001) %MON dynstat_wvel_mean            =   4.5659540933002E-22
(PID.TID 0000.0001) %MON dynstat_wvel_sd              =   2.6885799336852E-05
(PID.TID 0000.0001) %MON dynstat_wvel_del2            =   1.0816131628859E-05
(PID.TID 0000.0001) %MON dynstat_theta_max            =   2.9837197814086E+01
(PID.TID 0000.0001) %MON dynstat_theta_min            =  -1.9590794922154E+00
(PID.TID 0000.0001) %MON dynstat_theta_mean           =   3.5924529577068E+00
(PID.TID 0000.0001) %MON dynstat_theta_sd             =   4.3424733880370E+00
(PID.TID 0000.0001) %MON dynstat_theta_del2           =   1.3123305086927E-01
(PID.TID 0000.0001) %MON dynstat_salt_max             =   3.7388777420900E+01
(PID.TID 0000.0001) %MON dynstat_salt_min             =   2.9795918491107E+01
(PID.TID 0000.0001) %MON dynstat_salt_mean            =   3.4716200981680E+01
(PID.TID 0000.0001) %MON dynstat_salt_sd              =   2.9376992464390E-01
(PID.TID 0000.0001) %MON dynstat_salt_del2            =   2.4072225480015E-02
(PID.TID 0000.0001) %MON advcfl_uvel_max              =   3.4679217285834E-02
(PID.TID 0000.0001) %MON advcfl_vvel_max              =   1.6074157293135E-02
(PID.TID 0000.0001) %MON advcfl_wvel_max              =   2.0819875393399E-01
(PID.TID 0000.0001) %MON advcfl_W_hf_max              =   1.8883884228891E-01
(PID.TID 0000.0001) %MON pe_b_mean                    =   2.2086650463581E-04
(PID.TID 0000.0001) %MON ke_max                       =   2.0071554788575E-02
(PID.TID 0000.0001) %MON ke_mean                      =   2.4151817535783E-04
(PID.TID 0000.0001) %MON ke_vol                       =   1.3226782436723E+18
(PID.TID 0000.0001) %MON vort_r_min                   =  -1.0894746516119E-06
(PID.TID 0000.0001) %MON vort_r_max                   =   7.0474440424043E-07
(PID.TID 0000.0001) %MON vort_a_mean                  =  -2.5205768539509E-05
(PID.TID 0000.0001) %MON vort_a_sd                    =   7.3403201996841E-05
(PID.TID 0000.0001) %MON vort_p_mean                  =  -3.1758668481538E-05
(PID.TID 0000.0001) %MON vort_p_sd                    =   1.3126328614032E-04
(PID.TID 0000.0001) %MON surfExpan_theta_mean         =   1.0203915329094E-05
(PID.TID 0000.0001) %MON surfExpan_salt_mean          =  -4.4415072411506E-07
(PID.TID 0000.0001) // =======================================================
(PID.TID 0000.0001) // End MONITOR dynamic field statistics
(PID.TID 0000.0001) // =======================================================
time,SST,SSS,fu,fv,Q,E-P,i0,i1,a,b =   2.5488E+06  2.3812E-01  3.4573E+01 -2.5387E-02 -3.8106E-02  2.5355E+02  0.0000E+00     1     2  4.8333E-01  5.1667E-01
time,fu0,fu1,fu =   2.5488E+06 -3.5633E-02 -1.4435E-02 -2.5387E-02  4.8333E-01  5.1667E-01
 cg2d: Sum(rhs),rhsMax =  -8.23646706393788E-14  1.08659375347691E+01
(PID.TID 0000.0001)                    cg2d_init_res =    4.02742162130536E-01
(PID.TID 0000.0001)                       cg2d_iters =    24
(PID.TID 0000.0001)                         cg2d_res =    7.74132220300257E-14
(PID.TID 0000.0001) // =======================================================
(PID.TID 0000.0001) // Begin MONITOR dynamic field statistics
(PID.TID 0000.0001) // =======================================================
(PID.TID 0000.0001) %MON time_tsnumber                =                    60
(PID.TID 0000.0001) %MON time_secondsf                =   2.5920000000000E+06
(PID.TID 0000.0001) %MON dynstat_eta_max              =   1.2865750180522E+00
(PID.TID 0000.0001) %MON dynstat_eta_min              =  -1.2971154128464E+00
(PID.TID 0000.0001) %MON dynstat_eta_mean             =   2.1193497926775E-17
(PID.TID 0000.0001) %MON dynstat_eta_sd               =   4.1643850946206E-01
(PID.TID 0000.0001) %MON dynstat_eta_del2             =   1.9151050279720E-02
(PID.TID 0000.0001) %MON dynstat_uvel_max             =   1.9558918701343E-01
(PID.TID 0000.0001) %MON dynstat_uvel_min             =  -1.9074768853058E-01
(PID.TID 0000.0001) %MON dynstat_uvel_mean            =  -8.0703869929303E-04
(PID.TID 0000.0001) %MON dynstat_uvel_sd              =   1.7604276732227E-02
(PID.TID 0000.0001) %MON dynstat_uvel_del2            =   5.2033861730246E-03
(PID.TID 0000.0001) %MON dynstat_vvel_max             =   1.6562663207277E-01
(PID.TID 0000.0001) %MON dynstat_vvel_min             =  -1.4311880975489E-01
(PID.TID 0000.0001) %MON dynstat_vvel_mean            =  -1.6551059123031E-03
(PID.TID 0000.0001) %MON dynstat_vvel_sd              =   1.5124824493858E-02
(PID.TID 0000.0001) %MON dynstat_vvel_del2            =   4.8074479749479E-03
(PID.TID 0000.0001) %MON dynstat_wvel_max             =   3.3651588290840E-04
(PID.TID 0000.0001) %MON dynstat_wvel_min             =  -2.3089020289364E-04
(PID.TID 0000.0001) %MON dynstat_wvel_mean            =   3.8174765769688E-22
(PID.TID 0000.0001) %MON dynstat_wvel_sd              =   2.6688451158369E-05
(PID.TID 0000.0001) %MON dynstat_wvel_del2            =   1.0695376353298E-05
(PID.TID 0000.0001) %MON dynstat_theta_max            =   2.9845363806921E+01
(PID.TID 0000.0001) %MON dynstat_theta_min            =  -1.9597731146465E+00
(PID.TID 0000.0001) %MON dynstat_theta_mean           =   3.5923783331242E+00
(PID.TID 0000.0001) %MON dynstat_theta_sd             =   4.3422380106826E+00
(PID.TID 0000.0001) %MON dynstat_theta_del2           =   1.3108916142291E-01
(PID.TID 0000.0001) %MON dynstat_salt_max             =   3.7389161918859E+01
(PID.TID 0000.0001) %MON dynstat_salt_min             =   2.9794838547983E+01
(PID.TID 0000.0001) %MON dynstat_salt_mean            =   3.4716203352583E+01
(PID.TID 0000.0001) %MON dynstat_salt_sd              =   2.9380432778556E-01
(PID.TID 0000.0001) %MON dynstat_salt_del2            =   2.4025431076557E-02
(PID.TID 0000.0001) %MON advcfl_uvel_max              =   3.5854369455948E-02
(PID.TID 0000.0001) %MON advcfl_vvel_max              =   1.6089299139960E-02
(PID.TID 0000.0001) %MON advcfl_wvel_max              =   2.0679507536129E-01
(PID.TID 0000.0001) %MON advcfl_W_hf_max              =   1.8749044666891E-01
(PID.TID 0000.0001) %MON pe_b_mean                    =   2.2191311358046E-04
(PID.TID 0000.0001) %MON ke_max                       =   2.0029966635148E-02
(PID.TID 0000.0001) %MON ke_mean                      =   2.4502331801537E-04
(PID.TID 0000.0001) %MON ke_vol                       =   1.3226782436723E+18
(PID.TID 0000.0001) %MON vort_r_min                   =  -1.0954531506738E-06
(PID.TID 0000.0001) %MON vort_r_max                   =   7.0781155058136E-07
(PID.TID 0000.0001) %MON vort_a_mean                  =  -2.5205768512053E-05
(PID.TID 0000.0001) %MON vort_a_sd                    =   7.3403228381660E-05
(PID.TID 0000.0001) %MON vort_p_mean                  =  -3.1758668446944E-05
(PID.TID 0000.0001) %MON vort_p_sd                    =   1.3126326003425E-04
(PID.TID 0000.0001) %MON surfExpan_theta_mean         =   1.0568672221109E-05
(PID.TID 0000.0001) %MON surfExpan_salt_mean          =  -3.0480195502097E-07
(PID.TID 0000.0001) // =======================================================
(PID.TID 0000.0001) // End MONITOR dynamic field statistics
(PID.TID 0000.0001) // =======================================================
time,SST,SSS,fu,fv,Q,E-P,i0,i1,a,b =   2.5920E+06  2.1328E-01  3.4568E+01 -2.5034E-02 -3.7446E-02  2.5313E+02  0.0000E+00     1     2  5.0000E-01  5.0000E-01
time,fu0,fu1,fu =   2.5920E+06 -3.5633E-02 -1.4435E-02 -2.5034E-02  5.0000E-01  5.0000E-01
 cg2d: Sum(rhs),rhsMax =  -6.81815714997924E-14  1.14474193686522E+01
(PID.TID 0000.0001)                    cg2d_init_res =    3.69684323792408E-01
(PID.TID 0000.0001)                       cg2d_iters =    24
(PID.TID 0000.0001)                         cg2d_res =    6.76382142225399E-14
(PID.TID 0000.0001) // =======================================================
(PID.TID 0000.0001) // Begin MONITOR dynamic field statistics
(PID.TID 0000.0001) // =======================================================
(PID.TID 0000.0001) %MON time_tsnumber                =                    61
(PID.TID 0000.0001) %MON time_secondsf                =   2.6352000000000E+06
(PID.TID 0000.0001) %MON dynstat_eta_max              =   1.3543458579139E+00
(PID.TID 0000.0001) %MON dynstat_eta_min              =  -1.2975219240759E+00
(PID.TID 0000.0001) %MON dynstat_eta_mean             =  -3.1751591952691E-17
(PID.TID 0000.0001) %MON dynstat_eta_sd               =   4.1757655745164E-01
(PID.TID 0000.0001) %MON dynstat_eta_del2             =   1.9262082561363E-02
(PID.TID 0000.0001) %MON dynstat_uvel_max             =   2.0049265222002E-01
(PID.TID 0000.0001) %MON dynstat_uvel_min             =  -1.8867209889158E-01
(PID.TID 0000.0001) %MON dynstat_uvel_mean            =  -6.6993424101331E-04
(PID.TID 0000.0001) %MON dynstat_uvel_sd              =   1.7800912663410E-02
(PID.TID 0000.0001) %MON dynstat_uvel_del2            =   5.1856473660469E-03
(PID.TID 0000.0001) %MON dynstat_vvel_max             =   1.6569913139660E-01
(PID.TID 0000.0001) %MON dynstat_vvel_min             =  -1.4347830286530E-01
(PID.TID 0000.0001) %MON dynstat_vvel_mean            =  -1.8015461076433E-03
(PID.TID 0000.0001) %MON dynstat_vvel_sd              =   1.5147957559083E-02
(PID.TID 0000.0001) %MON dynstat_vvel_del2            =   4.7792556991986E-03
(PID.TID 0000.0001) %MON dynstat_wvel_max             =   3.4015172620308E-04
(PID.TID 0000.0001) %MON dynstat_wvel_min             =  -2.2536328158048E-04
(PID.TID 0000.0001) %MON dynstat_wvel_mean            =  -4.5961015593224E-22
(PID.TID 0000.0001) %MON dynstat_wvel_sd              =   2.6482834038884E-05
(PID.TID 0000.0001) %MON dynstat_wvel_del2            =   1.0579296275173E-05
(PID.TID 0000.0001) %MON dynstat_theta_max            =   2.9844206114283E+01
(PID.TID 0000.0001) %MON dynstat_theta_min            =  -1.9602915690904E+00
(PID.TID 0000.0001) %MON dynstat_theta_mean           =   3.5922983216006E+00
(PID.TID 0000.0001) %MON dynstat_theta_sd             =   4.3420041707206E+00
(PID.TID 0000.0001) %MON dynstat_theta_del2           =   1.3097702158600E-01
(PID.TID 0000.0001) %MON dynstat_salt_max             =   3.7389501993065E+01
(PID.TID 0000.0001) %MON dynstat_salt_min             =   2.9793688187515E+01
(PID.TID 0000.0001) %MON dynstat_salt_mean            =   3.4716203697737E+01
(PID.TID 0000.0001) %MON dynstat_salt_sd              =   2.9383823395540E-01
(PID.TID 0000.0001) %MON dynstat_salt_del2            =   2.3982228507306E-02
(PID.TID 0000.0001) %MON advcfl_uvel_max              =   3.6753246616879E-02
(PID.TID 0000.0001) %MON advcfl_vvel_max              =   1.6096341867896E-02
(PID.TID 0000.0001) %MON advcfl_wvel_max              =   1.9970634782274E-01
(PID.TID 0000.0001) %MON advcfl_W_hf_max              =   1.8088760519640E-01
(PID.TID 0000.0001) %MON pe_b_mean                    =   2.2312766434734E-04
(PID.TID 0000.0001) %MON ke_max                       =   1.9947199838831E-02
(PID.TID 0000.0001) %MON ke_mean                      =   2.4863587913784E-04
(PID.TID 0000.0001) %MON ke_vol                       =   1.3226782436723E+18
(PID.TID 0000.0001) %MON vort_r_min                   =  -1.1000245852788E-06
(PID.TID 0000.0001) %MON vort_r_max                   =   7.0957407643785E-07
(PID.TID 0000.0001) %MON vort_a_mean                  =  -2.5205768482639E-05
(PID.TID 0000.0001) %MON vort_a_sd                    =   7.3403253933733E-05
(PID.TID 0000.0001) %MON vort_p_mean                  =  -3.1758668409884E-05
(PID.TID 0000.0001) %MON vort_p_sd                    =   1.3126322922798E-04
(PID.TID 0000.0001) %MON surfExpan_theta_mean         =   1.1002908294971E-05
(PID.TID 0000.0001) %MON surfExpan_salt_mean          =  -1.4113714613764E-07
(PID.TID 0000.0001) // =======================================================
(PID.TID 0000.0001) // End MONITOR dynamic field statistics
(PID.TID 0000.0001) // =======================================================
time,SST,SSS,fu,fv,Q,E-P,i0,i1,a,b =   2.6352E+06  1.8845E-01  3.4563E+01 -2.4681E-02 -3.6786E-02  2.5270E+02  0.0000E+00     1     2  5.1667E-01  4.8333E-01
time,fu0,fu1,fu =   2.6352E+06 -3.5633E-02 -1.4435E-02 -2.4681E-02  5.1667E-01  4.8333E-01
 cg2d: Sum(rhs),rhsMax =   2.45498066320238E-13  1.18834274253422E+01
(PID.TID 0000.0001)                    cg2d_init_res =    3.43510382843920E-01
(PID.TID 0000.0001)                       cg2d_iters =    24
(PID.TID 0000.0001)                         cg2d_res =    4.72058793832860E-14
(PID.TID 0000.0001) // =======================================================
(PID.TID 0000.0001) // Begin MONITOR dynamic field statistics
(PID.TID 0000.0001) // =======================================================
(PID.TID 0000.0001) %MON time_tsnumber                =                    62
(PID.TID 0000.0001) %MON time_secondsf                =   2.6784000000000E+06
(PID.TID 0000.0001) %MON dynstat_eta_max              =   1.4051853624400E+00
(PID.TID 0000.0001) %MON dynstat_eta_min              =  -1.2927187728963E+00
(PID.TID 0000.0001) %MON dynstat_eta_mean             =   2.8365075684843E-16
(PID.TID 0000.0001) %MON dynstat_eta_sd               =   4.1883132126827E-01
(PID.TID 0000.0001) %MON dynstat_eta_del2             =   1.9437893148270E-02
(PID.TID 0000.0001) %MON dynstat_uvel_max             =   2.0381175480405E-01
(PID.TID 0000.0001) %MON dynstat_uvel_min             =  -1.8641870036323E-01
(PID.TID 0000.0001) %MON dynstat_uvel_mean            =  -5.3816274285671E-04
(PID.TID 0000.0001) %MON dynstat_uvel_sd              =   1.8007384153211E-02
(PID.TID 0000.0001) %MON dynstat_uvel_del2            =   5.1694697278944E-03
(PID.TID 0000.0001) %MON dynstat_vvel_max             =   1.6572692582261E-01
(PID.TID 0000.0001) %MON dynstat_vvel_min             =  -1.4410868712295E-01
(PID.TID 0000.0001) %MON dynstat_vvel_mean            =  -1.9226354118929E-03
(PID.TID 0000.0001) %MON dynstat_vvel_sd              =   1.5161192885814E-02
(PID.TID 0000.0001) %MON dynstat_vvel_del2            =   4.7534408121241E-03
(PID.TID 0000.0001) %MON dynstat_wvel_max             =   3.4359250314339E-04
(PID.TID 0000.0001) %MON dynstat_wvel_min             =  -2.1862339520753E-04
(PID.TID 0000.0001) %MON dynstat_wvel_mean            =   9.2185403171491E-22
(PID.TID 0000.0001) %MON dynstat_wvel_sd              =   2.6272784409168E-05
(PID.TID 0000.0001) %MON dynstat_wvel_del2            =   1.0466916855799E-05
(PID.TID 0000.0001) %MON dynstat_theta_max            =   2.9832599737885E+01
(PID.TID 0000.0001) %MON dynstat_theta_min            =  -1.9606228513242E+00
(PID.TID 0000.0001) %MON dynstat_theta_mean           =   3.5922124159946E+00
(PID.TID 0000.0001) %MON dynstat_theta_sd             =   4.3417674503791E+00
(PID.TID 0000.0001) %MON dynstat_theta_del2           =   1.3084383047512E-01
(PID.TID 0000.0001) %MON dynstat_salt_max             =   3.7389810213123E+01
(PID.TID 0000.0001) %MON dynstat_salt_min             =   2.9792463772611E+01
(PID.TID 0000.0001) %MON dynstat_salt_mean            =   3.4716201894224E+01
(PID.TID 0000.0001) %MON dynstat_salt_sd              =   2.9387057911987E-01
(PID.TID 0000.0001) %MON dynstat_salt_del2            =   2.3938739923966E-02
(PID.TID 0000.0001) %MON advcfl_uvel_max              =   3.7361686848811E-02
(PID.TID 0000.0001) %MON advcfl_vvel_max              =   1.6099041873498E-02
(PID.TID 0000.0001) %MON advcfl_wvel_max              =   1.8712296598148E-01
(PID.TID 0000.0001) %MON advcfl_W_hf_max              =   1.6920744398984E-01
(PID.TID 0000.0001) %MON pe_b_mean                    =   2.2447061885667E-04
(PID.TID 0000.0001) %MON ke_max                       =   1.9824128266511E-02
(PID.TID 0000.0001) %MON ke_mean                      =   2.5230503506058E-04
(PID.TID 0000.0001) %MON ke_vol                       =   1.3226782436723E+18
(PID.TID 0000.0001) %MON vort_r_min                   =  -1.1031313152571E-06
(PID.TID 0000.0001) %MON vort_r_max                   =   7.1003038255341E-07
(PID.TID 0000.0001) %MON vort_a_mean                  =  -2.5205768451165E-05
(PID.TID 0000.0001) %MON vort_a_sd                    =   7.3403278444677E-05
(PID.TID 0000.0001) %MON vort_p_mean                  =  -3.1758668370227E-05
(PID.TID 0000.0001) %MON vort_p_sd                    =   1.3126319456713E-04
(PID.TID 0000.0001) %MON surfExpan_theta_mean         =   1.1487541073075E-05
(PID.TID 0000.0001) %MON surfExpan_salt_mean          =   3.8242409702729E-08
(PID.TID 0000.0001) // =======================================================
(PID.TID 0000.0001) // End MONITOR dynamic field statistics
(PID.TID 0000.0001) // =======================================================
time,SST,SSS,fu,fv,Q,E-P,i0,i1,a,b =   2.6784E+06  1.6361E-01  3.4558E+01 -2.4327E-02 -3.6125E-02  2.5228E+02  0.0000E+00     1     2  5.3333E-01  4.6667E-01
time,fu0,fu1,fu =   2.6784E+06 -3.5633E-02 -1.4435E-02 -2.4327E-02  5.3333E-01  4.6667E-01
 cg2d: Sum(rhs),rhsMax =   4.57300863843102E-13  1.21703383764405E+01
(PID.TID 0000.0001)                    cg2d_init_res =    3.24125028460245E-01
(PID.TID 0000.0001)                       cg2d_iters =    24
(PID.TID 0000.0001)                         cg2d_res =    4.58165955941714E-14
(PID.TID 0000.0001) // =======================================================
(PID.TID 0000.0001) // Begin MONITOR dynamic field statistics
(PID.TID 0000.0001) // =======================================================
(PID.TID 0000.0001) %MON time_tsnumber                =                    63
(PID.TID 0000.0001) %MON time_secondsf                =   2.7216000000000E+06
(PID.TID 0000.0001) %MON dynstat_eta_max              =   1.4386673265235E+00
(PID.TID 0000.0001) %MON dynstat_eta_min              =  -1.2832395087093E+00
(PID.TID 0000.0001) %MON dynstat_eta_mean             =   4.2499049915299E-17
(PID.TID 0000.0001) %MON dynstat_eta_sd               =   4.2016058785582E-01
(PID.TID 0000.0001) %MON dynstat_eta_del2             =   1.9618478655446E-02
(PID.TID 0000.0001) %MON dynstat_uvel_max             =   2.0549297830011E-01
(PID.TID 0000.0001) %MON dynstat_uvel_min             =  -1.8399665151396E-01
(PID.TID 0000.0001) %MON dynstat_uvel_mean            =  -4.1244604100585E-04
(PID.TID 0000.0001) %MON dynstat_uvel_sd              =   1.8217926922226E-02
(PID.TID 0000.0001) %MON dynstat_uvel_del2            =   5.1547415698137E-03
(PID.TID 0000.0001) %MON dynstat_vvel_max             =   1.6652454202532E-01
(PID.TID 0000.0001) %MON dynstat_vvel_min             =  -1.4475242793920E-01
(PID.TID 0000.0001) %MON dynstat_vvel_mean            =  -2.0185941691445E-03
(PID.TID 0000.0001) %MON dynstat_vvel_sd              =   1.5168183547611E-02
(PID.TID 0000.0001) %MON dynstat_vvel_del2            =   4.7308172878436E-03
(PID.TID 0000.0001) %MON dynstat_wvel_max             =   3.4685628062696E-04
(PID.TID 0000.0001) %MON dynstat_wvel_min             =  -2.1072969503948E-04
(PID.TID 0000.0001) %MON dynstat_wvel_mean            =  -4.6955124006330E-22
(PID.TID 0000.0001) %MON dynstat_wvel_sd              =   2.6063618792711E-05
(PID.TID 0000.0001) %MON dynstat_wvel_del2            =   1.0359406957312E-05
(PID.TID 0000.0001) %MON dynstat_theta_max            =   2.9810615973811E+01
(PID.TID 0000.0001) %MON dynstat_theta_min            =  -1.9607548179333E+00
(PID.TID 0000.0001) %MON dynstat_theta_mean           =   3.5921204075318E+00
(PID.TID 0000.0001) %MON dynstat_theta_sd             =   4.3415234770006E+00
(PID.TID 0000.0001) %MON dynstat_theta_del2           =   1.3070888110153E-01
(PID.TID 0000.0001) %MON dynstat_salt_max             =   3.7390098572146E+01
(PID.TID 0000.0001) %MON dynstat_salt_min             =   2.9791162801675E+01
(PID.TID 0000.0001) %MON dynstat_salt_mean            =   3.4716197917117E+01
(PID.TID 0000.0001) %MON dynstat_salt_sd              =   2.9390036971747E-01
(PID.TID 0000.0001) %MON dynstat_salt_del2            =   2.3899619474581E-02
(PID.TID 0000.0001) %MON advcfl_uvel_max              =   3.7669879797953E-02
(PID.TID 0000.0001) %MON advcfl_vvel_max              =   1.6176523891479E-02
(PID.TID 0000.0001) %MON advcfl_wvel_max              =   1.6942749237480E-01
(PID.TID 0000.0001) %MON advcfl_W_hf_max              =   1.5280481020566E-01
(PID.TID 0000.0001) %MON pe_b_mean                    =   2.2589770786560E-04
(PID.TID 0000.0001) %MON ke_max                       =   1.9661756524085E-02
(PID.TID 0000.0001) %MON ke_mean                      =   2.5598076692813E-04
(PID.TID 0000.0001) %MON ke_vol                       =   1.3226782436723E+18
(PID.TID 0000.0001) %MON vort_r_min                   =  -1.1047120436536E-06
(PID.TID 0000.0001) %MON vort_r_max                   =   7.0918213554922E-07
(PID.TID 0000.0001) %MON vort_a_mean                  =  -2.5205768417634E-05
(PID.TID 0000.0001) %MON vort_a_sd                    =   7.3403301747289E-05
(PID.TID 0000.0001) %MON vort_p_mean                  =  -3.1758668327978E-05
(PID.TID 0000.0001) %MON vort_p_sd                    =   1.3126315695905E-04
(PID.TID 0000.0001) %MON surfExpan_theta_mean         =   1.2005646819280E-05
(PID.TID 0000.0001) %MON surfExpan_salt_mean          =   2.2564063002878E-07
(PID.TID 0000.0001) // =======================================================
(PID.TID 0000.0001) // End MONITOR dynamic field statistics
(PID.TID 0000.0001) // =======================================================
time,SST,SSS,fu,fv,Q,E-P,i0,i1,a,b =   2.7216E+06  1.3877E-01  3.4553E+01 -2.3974E-02 -3.5465E-02  2.5186E+02  0.0000E+00     1     2  5.5000E-01  4.5000E-01
time,fu0,fu1,fu =   2.7216E+06 -3.5633E-02 -1.4435E-02 -2.3974E-02  5.5000E-01  4.5000E-01
 cg2d: Sum(rhs),rhsMax =  -4.38815650483093E-14  1.23086914713133E+01
(PID.TID 0000.0001)                    cg2d_init_res =    3.11872193728863E-01
(PID.TID 0000.0001)                       cg2d_iters =    24
(PID.TID 0000.0001)                         cg2d_res =    5.25837471797332E-14
(PID.TID 0000.0001) // =======================================================
(PID.TID 0000.0001) // Begin MONITOR dynamic field statistics
(PID.TID 0000.0001) // =======================================================
(PID.TID 0000.0001) %MON time_tsnumber                =                    64
(PID.TID 0000.0001) %MON time_secondsf                =   2.7648000000000E+06
(PID.TID 0000.0001) %MON dynstat_eta_max              =   1.4548491420426E+00
(PID.TID 0000.0001) %MON dynstat_eta_min              =  -1.3063945040753E+00
(PID.TID 0000.0001) %MON dynstat_eta_mean             =   2.4441340772413E-16
(PID.TID 0000.0001) %MON dynstat_eta_sd               =   4.2152466086979E-01
(PID.TID 0000.0001) %MON dynstat_eta_del2             =   1.9762604643733E-02
(PID.TID 0000.0001) %MON dynstat_uvel_max             =   2.0550748307069E-01
(PID.TID 0000.0001) %MON dynstat_uvel_min             =  -1.8141444169823E-01
(PID.TID 0000.0001) %MON dynstat_uvel_mean            =  -2.9328002837864E-04
(PID.TID 0000.0001) %MON dynstat_uvel_sd              =   1.8426291656865E-02
(PID.TID 0000.0001) %MON dynstat_uvel_del2            =   5.1418334563492E-03
(PID.TID 0000.0001) %MON dynstat_vvel_max             =   1.6988862537742E-01
(PID.TID 0000.0001) %MON dynstat_vvel_min             =  -1.4524916287961E-01
(PID.TID 0000.0001) %MON dynstat_vvel_mean            =  -2.0900158290779E-03
(PID.TID 0000.0001) %MON dynstat_vvel_sd              =   1.5173031573663E-02
(PID.TID 0000.0001) %MON dynstat_vvel_del2            =   4.7108656571353E-03
(PID.TID 0000.0001) %MON dynstat_wvel_max             =   3.4995850938149E-04
(PID.TID 0000.0001) %MON dynstat_wvel_min             =  -2.0727823353451E-04
(PID.TID 0000.0001) %MON dynstat_wvel_mean            =   4.6579074947606E-24
(PID.TID 0000.0001) %MON dynstat_wvel_sd              =   2.5861023659760E-05
(PID.TID 0000.0001) %MON dynstat_wvel_del2            =   1.0258135395501E-05
(PID.TID 0000.0001) %MON dynstat_theta_max            =   2.9777679135942E+01
(PID.TID 0000.0001) %MON dynstat_theta_min            =  -1.9606758403211E+00
(PID.TID 0000.0001) %MON dynstat_theta_mean           =   3.5920222380368E+00
(PID.TID 0000.0001) %MON dynstat_theta_sd             =   4.3412684457832E+00
(PID.TID 0000.0001) %MON dynstat_theta_del2           =   1.3056928503419E-01
(PID.TID 0000.0001) %MON dynstat_salt_max             =   3.7390377814717E+01
(PID.TID 0000.0001) %MON dynstat_salt_min             =   2.9789784279262E+01
(PID.TID 0000.0001) %MON dynstat_salt_mean            =   3.4716191817652E+01
(PID.TID 0000.0001) %MON dynstat_salt_sd              =   2.9392670758785E-01
(PID.TID 0000.0001) %MON dynstat_salt_del2            =   2.3861569367822E-02
(PID.TID 0000.0001) %MON advcfl_uvel_max              =   3.7672538735347E-02
(PID.TID 0000.0001) %MON advcfl_vvel_max              =   1.6503317612430E-02
(PID.TID 0000.0001) %MON advcfl_wvel_max              =   1.4718384397501E-01
(PID.TID 0000.0001) %MON advcfl_W_hf_max              =   1.3220221597046E-01
(PID.TID 0000.0001) %MON pe_b_mean                    =   2.2736686596328E-04
(PID.TID 0000.0001) %MON ke_max                       =   1.9461174729195E-02
(PID.TID 0000.0001) %MON ke_mean                      =   2.5960919772572E-04
(PID.TID 0000.0001) %MON ke_vol                       =   1.3226782436723E+18
(PID.TID 0000.0001) %MON vort_r_min                   =  -1.1047051683577E-06
(PID.TID 0000.0001) %MON vort_r_max                   =   7.0703376281685E-07
(PID.TID 0000.0001) %MON vort_a_mean                  =  -2.5205768382151E-05
(PID.TID 0000.0001) %MON vort_a_sd                    =   7.3403323718867E-05
(PID.TID 0000.0001) %MON vort_p_mean                  =  -3.1758668283271E-05
(PID.TID 0000.0001) %MON vort_p_sd                    =   1.3126311738996E-04
(PID.TID 0000.0001) %MON surfExpan_theta_mean         =   1.2534658751843E-05
(PID.TID 0000.0001) %MON surfExpan_salt_mean          =   4.1247763151515E-07
(PID.TID 0000.0001) // =======================================================
(PID.TID 0000.0001) // End MONITOR dynamic field statistics
(PID.TID 0000.0001) // =======================================================
time,SST,SSS,fu,fv,Q,E-P,i0,i1,a,b =   2.7648E+06  1.1393E-01  3.4548E+01 -2.3621E-02 -3.4805E-02  2.5144E+02  0.0000E+00     1     2  5.6667E-01  4.3333E-01
time,fu0,fu1,fu =   2.7648E+06 -3.5633E-02 -1.4435E-02 -2.3621E-02  5.6667E-01  4.3333E-01
 cg2d: Sum(rhs),rhsMax =   3.62321284086420E-13  1.23029131750468E+01
(PID.TID 0000.0001)                    cg2d_init_res =    3.07221072932639E-01
(PID.TID 0000.0001)                       cg2d_iters =    24
(PID.TID 0000.0001)                         cg2d_res =    4.72427432325060E-14
(PID.TID 0000.0001) // =======================================================
(PID.TID 0000.0001) // Begin MONITOR dynamic field statistics
(PID.TID 0000.0001) // =======================================================
(PID.TID 0000.0001) %MON time_tsnumber                =                    65
(PID.TID 0000.0001) %MON time_secondsf                =   2.8080000000000E+06
(PID.TID 0000.0001) %MON dynstat_eta_max              =   1.4542402030841E+00
(PID.TID 0000.0001) %MON dynstat_eta_min              =  -1.3379176096462E+00
(PID.TID 0000.0001) %MON dynstat_eta_mean             =  -1.6533029064025E-16
(PID.TID 0000.0001) %MON dynstat_eta_sd               =   4.2289203602424E-01
(PID.TID 0000.0001) %MON dynstat_eta_del2             =   1.9834659491488E-02
(PID.TID 0000.0001) %MON dynstat_uvel_max             =   2.0385089091279E-01
(PID.TID 0000.0001) %MON dynstat_uvel_min             =  -1.7867979445909E-01
(PID.TID 0000.0001) %MON dynstat_uvel_mean            =  -1.8095085925373E-04
(PID.TID 0000.0001) %MON dynstat_uvel_sd              =   1.8626068103183E-02
(PID.TID 0000.0001) %MON dynstat_uvel_del2            =   5.1298552212451E-03
(PID.TID 0000.0001) %MON dynstat_vvel_max             =   1.7292136093326E-01
(PID.TID 0000.0001) %MON dynstat_vvel_min             =  -1.4561088359003E-01
(PID.TID 0000.0001) %MON dynstat_vvel_mean            =  -2.1378378133926E-03
(PID.TID 0000.0001) %MON dynstat_vvel_sd              =   1.5179654257028E-02
(PID.TID 0000.0001) %MON dynstat_vvel_del2            =   4.6932725361627E-03
(PID.TID 0000.0001) %MON dynstat_wvel_max             =   3.5291165879695E-04
(PID.TID 0000.0001) %MON dynstat_wvel_min             =  -2.1148387258690E-04
(PID.TID 0000.0001) %MON dynstat_wvel_mean            =   4.7453441028104E-22
(PID.TID 0000.0001) %MON dynstat_wvel_sd              =   2.5669946088311E-05
(PID.TID 0000.0001) %MON dynstat_wvel_del2            =   1.0162316882702E-05
(PID.TID 0000.0001) %MON dynstat_theta_max            =   2.9733636768873E+01
(PID.TID 0000.0001) %MON dynstat_theta_min            =  -1.9603754023162E+00
(PID.TID 0000.0001) %MON dynstat_theta_mean           =   3.5919181151567E+00
(PID.TID 0000.0001) %MON dynstat_theta_sd             =   4.3409996129210E+00
(PID.TID 0000.0001) %MON dynstat_theta_del2           =   1.3041241122320E-01
(PID.TID 0000.0001) %MON dynstat_salt_max             =   3.7390656914208E+01
(PID.TID 0000.0001) %MON dynstat_salt_min             =   2.9788328476636E+01
(PID.TID 0000.0001) %MON dynstat_salt_mean            =   3.4716183734477E+01
(PID.TID 0000.0001) %MON dynstat_salt_sd              =   2.9394886482915E-01
(PID.TID 0000.0001) %MON dynstat_salt_del2            =   2.3822184847977E-02
(PID.TID 0000.0001) %MON advcfl_uvel_max              =   3.7368861072108E-02
(PID.TID 0000.0001) %MON advcfl_vvel_max              =   1.6797923552064E-02
(PID.TID 0000.0001) %MON advcfl_wvel_max              =   1.2111798453679E-01
(PID.TID 0000.0001) %MON advcfl_W_hf_max              =   1.0807193298402E-01
(PID.TID 0000.0001) %MON pe_b_mean                    =   2.2884435986394E-04
(PID.TID 0000.0001) %MON ke_max                       =   1.9223527047025E-02
(PID.TID 0000.0001) %MON ke_mean                      =   2.6312893715083E-04
(PID.TID 0000.0001) %MON ke_vol                       =   1.3226782436723E+18
(PID.TID 0000.0001) %MON vort_r_min                   =  -1.1030553871977E-06
(PID.TID 0000.0001) %MON vort_r_max                   =   7.0359205908180E-07
(PID.TID 0000.0001) %MON vort_a_mean                  =  -2.5205768344929E-05
(PID.TID 0000.0001) %MON vort_a_sd                    =   7.3403344280129E-05
(PID.TID 0000.0001) %MON vort_p_mean                  =  -3.1758668236372E-05
(PID.TID 0000.0001) %MON vort_p_sd                    =   1.3126307689402E-04
(PID.TID 0000.0001) %MON surfExpan_theta_mean         =   1.3058294977267E-05
(PID.TID 0000.0001) %MON surfExpan_salt_mean          =   5.9275469842502E-07
(PID.TID 0000.0001) // =======================================================
(PID.TID 0000.0001) // End MONITOR dynamic field statistics
(PID.TID 0000.0001) // =======================================================
time,SST,SSS,fu,fv,Q,E-P,i0,i1,a,b =   2.8080E+06  8.9094E-02  3.4543E+01 -2.3267E-02 -3.4144E-02  2.5102E+02  0.0000E+00     1     2  5.8333E-01  4.1667E-01
time,fu0,fu1,fu =   2.8080E+06 -3.5633E-02 -1.4435E-02 -2.3267E-02  5.8333E-01  4.1667E-01
 cg2d: Sum(rhs),rhsMax =   5.04180031057899E-14  1.21609674235392E+01
(PID.TID 0000.0001)                    cg2d_init_res =    3.10461816053415E-01
(PID.TID 0000.0001)                       cg2d_iters =    24
(PID.TID 0000.0001)                         cg2d_res =    3.88300218831763E-14
(PID.TID 0000.0001) // =======================================================
(PID.TID 0000.0001) // Begin MONITOR dynamic field statistics
(PID.TID 0000.0001) // =======================================================
(PID.TID 0000.0001) %MON time_tsnumber                =                    66
(PID.TID 0000.0001) %MON time_secondsf                =   2.8512000000000E+06
(PID.TID 0000.0001) %MON dynstat_eta_max              =   1.4377615964987E+00
(PID.TID 0000.0001) %MON dynstat_eta_min              =  -1.3655043382315E+00
(PID.TID 0000.0001) %MON dynstat_eta_mean             =   6.2722982237771E-17
(PID.TID 0000.0001) %MON dynstat_eta_sd               =   4.2424334052181E-01
(PID.TID 0000.0001) %MON dynstat_eta_del2             =   1.9832228330489E-02
(PID.TID 0000.0001) %MON dynstat_uvel_max             =   2.0054285034582E-01
(PID.TID 0000.0001) %MON dynstat_uvel_min             =  -1.7579968345908E-01
(PID.TID 0000.0001) %MON dynstat_uvel_mean            =  -7.5553302862652E-05
(PID.TID 0000.0001) %MON dynstat_uvel_sd              =   1.8811005734416E-02
(PID.TID 0000.0001) %MON dynstat_uvel_del2            =   5.1192997534114E-03
(PID.TID 0000.0001) %MON dynstat_vvel_max             =   1.7561326408647E-01
(PID.TID 0000.0001) %MON dynstat_vvel_min             =  -1.4693264445167E-01
(PID.TID 0000.0001) %MON dynstat_vvel_mean            =  -2.1633087055332E-03
(PID.TID 0000.0001) %MON dynstat_vvel_sd              =   1.5191227082172E-02
(PID.TID 0000.0001) %MON dynstat_vvel_del2            =   4.6775959666041E-03
(PID.TID 0000.0001) %MON dynstat_wvel_max             =   3.5572506354860E-04
(PID.TID 0000.0001) %MON dynstat_wvel_min             =  -2.1749036510624E-04
(PID.TID 0000.0001) %MON dynstat_wvel_mean            =  -4.1021670906719E-22
(PID.TID 0000.0001) %MON dynstat_wvel_sd              =   2.5493668148175E-05
(PID.TID 0000.0001) %MON dynstat_wvel_del2            =   1.0076281851828E-05
(PID.TID 0000.0001) %MON dynstat_theta_max            =   2.9699318231193E+01
(PID.TID 0000.0001) %MON dynstat_theta_min            =  -1.9598446651296E+00
(PID.TID 0000.0001) %MON dynstat_theta_mean           =   3.5918083953431E+00
(PID.TID 0000.0001) %MON dynstat_theta_sd             =   4.3407155989063E+00
(PID.TID 0000.0001) %MON dynstat_theta_del2           =   1.3024453207831E-01
(PID.TID 0000.0001) %MON dynstat_salt_max             =   3.7390942590976E+01
(PID.TID 0000.0001) %MON dynstat_salt_min             =   2.9786797146076E+01
(PID.TID 0000.0001) %MON dynstat_salt_mean            =   3.4716173851564E+01
(PID.TID 0000.0001) %MON dynstat_salt_sd              =   2.9396613846465E-01
(PID.TID 0000.0001) %MON dynstat_salt_del2            =   2.3785221088977E-02
(PID.TID 0000.0001) %MON advcfl_uvel_max              =   3.6762448670305E-02
(PID.TID 0000.0001) %MON advcfl_vvel_max              =   1.7059420356931E-02
(PID.TID 0000.0001) %MON advcfl_wvel_max              =   1.0320074623243E-01
(PID.TID 0000.0001) %MON advcfl_W_hf_max              =   1.0377035487250E-01
(PID.TID 0000.0001) %MON pe_b_mean                    =   2.3030918991432E-04
(PID.TID 0000.0001) %MON ke_max                       =   1.8949991057392E-02
(PID.TID 0000.0001) %MON ke_mean                      =   2.6646909338562E-04
(PID.TID 0000.0001) %MON ke_vol                       =   1.3226782436723E+18
(PID.TID 0000.0001) %MON vort_r_min                   =  -1.0997215230515E-06
(PID.TID 0000.0001) %MON vort_r_max                   =   6.9886584853264E-07
(PID.TID 0000.0001) %MON vort_a_mean                  =  -2.5205768306277E-05
(PID.TID 0000.0001) %MON vort_a_sd                    =   7.3403363392910E-05
(PID.TID 0000.0001) %MON vort_p_mean                  =  -3.1758668187671E-05
(PID.TID 0000.0001) %MON vort_p_sd                    =   1.3126303649834E-04
(PID.TID 0000.0001) %MON surfExpan_theta_mean         =   1.3556332687956E-05
(PID.TID 0000.0001) %MON surfExpan_salt_mean          =   7.5965578584764E-07
(PID.TID 0000.0001) // =======================================================
(PID.TID 0000.0001) // End MONITOR dynamic field statistics
(PID.TID 0000.0001) // =======================================================
time,SST,SSS,fu,fv,Q,E-P,i0,i1,a,b =   2.8512E+06  6.4256E-02  3.4538E+01 -2.2914E-02 -3.3484E-02  2.5060E+02  0.0000E+00     1     2  6.0000E-01  4.0000E-01
time,fu0,fu1,fu =   2.8512E+06 -3.5633E-02 -1.4435E-02 -2.2914E-02  6.0000E-01  4.0000E-01
 cg2d: Sum(rhs),rhsMax =   3.89410725887274E-14  1.18939189897344E+01
(PID.TID 0000.0001)                    cg2d_init_res =    3.21493050980551E-01
(PID.TID 0000.0001)                       cg2d_iters =    24
(PID.TID 0000.0001)                         cg2d_res =    4.58717556148754E-14
(PID.TID 0000.0001) // =======================================================
(PID.TID 0000.0001) // Begin MONITOR dynamic field statistics
(PID.TID 0000.0001) // =======================================================
(PID.TID 0000.0001) %MON time_tsnumber                =                    67
(PID.TID 0000.0001) %MON time_secondsf                =   2.8944000000000E+06
(PID.TID 0000.0001) %MON dynstat_eta_max              =   1.4066956473212E+00
(PID.TID 0000.0001) %MON dynstat_eta_min              =  -1.3880790779314E+00
(PID.TID 0000.0001) %MON dynstat_eta_mean             =  -6.1589386207946E-17
(PID.TID 0000.0001) %MON dynstat_eta_sd               =   4.2557303882149E-01
(PID.TID 0000.0001) %MON dynstat_eta_del2             =   1.9804759179887E-02
(PID.TID 0000.0001) %MON dynstat_uvel_max             =   1.9562543593051E-01
(PID.TID 0000.0001) %MON dynstat_uvel_min             =  -1.7278030038681E-01
(PID.TID 0000.0001) %MON dynstat_uvel_mean            =   2.2985362869573E-05
(PID.TID 0000.0001) %MON dynstat_uvel_sd              =   1.8975310990359E-02
(PID.TID 0000.0001) %MON dynstat_uvel_del2            =   5.1096802581060E-03
(PID.TID 0000.0001) %MON dynstat_vvel_max             =   1.7795511300449E-01
(PID.TID 0000.0001) %MON dynstat_vvel_min             =  -1.4879466918934E-01
(PID.TID 0000.0001) %MON dynstat_vvel_mean            =  -2.1679479862646E-03
(PID.TID 0000.0001) %MON dynstat_vvel_sd              =   1.5209786192083E-02
(PID.TID 0000.0001) %MON dynstat_vvel_del2            =   4.6646010497655E-03
(PID.TID 0000.0001) %MON dynstat_wvel_max             =   3.5840527117567E-04
(PID.TID 0000.0001) %MON dynstat_wvel_min             =  -2.2538062194075E-04
(PID.TID 0000.0001) %MON dynstat_wvel_mean            =  -8.6624124464988E-22
(PID.TID 0000.0001) %MON dynstat_wvel_sd              =   2.5333196359418E-05
(PID.TID 0000.0001) %MON dynstat_wvel_del2            =   9.9988323206467E-06
(PID.TID 0000.0001) %MON dynstat_theta_max            =   2.9701264015655E+01
(PID.TID 0000.0001) %MON dynstat_theta_min            =  -1.9590768640295E+00
(PID.TID 0000.0001) %MON dynstat_theta_mean           =   3.5916936267212E+00
(PID.TID 0000.0001) %MON dynstat_theta_sd             =   4.3404166735010E+00
(PID.TID 0000.0001) %MON dynstat_theta_del2           =   1.3006797795306E-01
(PID.TID 0000.0001) %MON dynstat_salt_max             =   3.7391239057470E+01
(PID.TID 0000.0001) %MON dynstat_salt_min             =   2.9785193399526E+01
(PID.TID 0000.0001) %MON dynstat_salt_mean            =   3.4716162418016E+01
(PID.TID 0000.0001) %MON dynstat_salt_sd              =   2.9397893050461E-01
(PID.TID 0000.0001) %MON dynstat_salt_del2            =   2.3750724326436E-02
(PID.TID 0000.0001) %MON advcfl_uvel_max              =   3.5861014414625E-02
(PID.TID 0000.0001) %MON advcfl_vvel_max              =   1.7286912199945E-02
(PID.TID 0000.0001) %MON advcfl_wvel_max              =   1.1758838618077E-01
(PID.TID 0000.0001) %MON advcfl_W_hf_max              =   1.1884107201371E-01
(PID.TID 0000.0001) %MON pe_b_mean                    =   2.3175516034180E-04
(PID.TID 0000.0001) %MON ke_max                       =   1.8641792160754E-02
(PID.TID 0000.0001) %MON ke_mean                      =   2.6954967341875E-04
(PID.TID 0000.0001) %MON ke_vol                       =   1.3226782436723E+18
(PID.TID 0000.0001) %MON vort_r_min                   =  -1.0946760430783E-06
(PID.TID 0000.0001) %MON vort_r_max                   =   6.9286640076320E-07
(PID.TID 0000.0001) %MON vort_a_mean                  =  -2.5205768266577E-05
(PID.TID 0000.0001) %MON vort_a_sd                    =   7.3403381056424E-05
(PID.TID 0000.0001) %MON vort_p_mean                  =  -3.1758668137650E-05
(PID.TID 0000.0001) %MON vort_p_sd                    =   1.3126299718698E-04
(PID.TID 0000.0001) %MON surfExpan_theta_mean         =   1.4015514895198E-05
(PID.TID 0000.0001) %MON surfExpan_salt_mean          =   9.0867638277250E-07
(PID.TID 0000.0001) // =======================================================
(PID.TID 0000.0001) // End MONITOR dynamic field statistics
(PID.TID 0000.0001) // =======================================================
time,SST,SSS,fu,fv,Q,E-P,i0,i1,a,b =   2.8944E+06  3.9418E-02  3.4534E+01 -2.2561E-02 -3.2824E-02  2.5018E+02  0.0000E+00     1     2  6.1667E-01  3.8333E-01
time,fu0,fu1,fu =   2.8944E+06 -3.5633E-02 -1.4435E-02 -2.2561E-02  6.1667E-01  3.8333E-01
 cg2d: Sum(rhs),rhsMax =  -5.12784259498744E-14  1.15154298332194E+01
(PID.TID 0000.0001)                    cg2d_init_res =    3.39778953837212E-01
(PID.TID 0000.0001)                       cg2d_iters =    24
(PID.TID 0000.0001)                         cg2d_res =    5.74831785464368E-14
(PID.TID 0000.0001) // =======================================================
(PID.TID 0000.0001) // Begin MONITOR dynamic field statistics
(PID.TID 0000.0001) // =======================================================
(PID.TID 0000.0001) %MON time_tsnumber                =                    68
(PID.TID 0000.0001) %MON time_secondsf                =   2.9376000000000E+06
(PID.TID 0000.0001) %MON dynstat_eta_max              =   1.3626275960182E+00
(PID.TID 0000.0001) %MON dynstat_eta_min              =  -1.4048827380304E+00
(PID.TID 0000.0001) %MON dynstat_eta_mean             =  -1.5739538444543E-16
(PID.TID 0000.0001) %MON dynstat_eta_sd               =   4.2688880977899E-01
(PID.TID 0000.0001) %MON dynstat_eta_del2             =   1.9752764156586E-02
(PID.TID 0000.0001) %MON dynstat_uvel_max             =   1.8916598545538E-01
(PID.TID 0000.0001) %MON dynstat_uvel_min             =  -1.6966049176608E-01
(PID.TID 0000.0001) %MON dynstat_uvel_mean            =   1.1487613989625E-04
(PID.TID 0000.0001) %MON dynstat_uvel_sd              =   1.9113900289017E-02
(PID.TID 0000.0001) %MON dynstat_uvel_del2            =   5.1014016429675E-03
(PID.TID 0000.0001) %MON dynstat_vvel_max             =   1.7993808617385E-01
(PID.TID 0000.0001) %MON dynstat_vvel_min             =  -1.5045538467616E-01
(PID.TID 0000.0001) %MON dynstat_vvel_mean            =  -2.1535015726015E-03
(PID.TID 0000.0001) %MON dynstat_vvel_sd              =   1.5236031034126E-02
(PID.TID 0000.0001) %MON dynstat_vvel_del2            =   4.6554254564151E-03
(PID.TID 0000.0001) %MON dynstat_wvel_max             =   3.6095554267145E-04
(PID.TID 0000.0001) %MON dynstat_wvel_min             =  -2.3300937324861E-04
(PID.TID 0000.0001) %MON dynstat_wvel_mean            =  -8.0266048920579E-22
(PID.TID 0000.0001) %MON dynstat_wvel_sd              =   2.5187129771044E-05
(PID.TID 0000.0001) %MON dynstat_wvel_del2            =   9.9305883788588E-06
(PID.TID 0000.0001) %MON dynstat_theta_max            =   2.9703577828474E+01
(PID.TID 0000.0001) %MON dynstat_theta_min            =  -1.9580676689701E+00
(PID.TID 0000.0001) %MON dynstat_theta_mean           =   3.5915744593702E+00
(PID.TID 0000.0001) %MON dynstat_theta_sd             =   4.3401011265379E+00
(PID.TID 0000.0001) %MON dynstat_theta_del2           =   1.2989716763137E-01
(PID.TID 0000.0001) %MON dynstat_salt_max             =   3.7391547953592E+01
(PID.TID 0000.0001) %MON dynstat_salt_min             =   2.9783521665126E+01
(PID.TID 0000.0001) %MON dynstat_salt_mean            =   3.4716149706612E+01
(PID.TID 0000.0001) %MON dynstat_salt_sd              =   2.9398490751477E-01
(PID.TID 0000.0001) %MON dynstat_salt_del2            =   2.3712928175067E-02
(PID.TID 0000.0001) %MON advcfl_uvel_max              =   3.4676902310301E-02
(PID.TID 0000.0001) %MON advcfl_vvel_max              =   1.7479542141816E-02
(PID.TID 0000.0001) %MON advcfl_wvel_max              =   1.2992973934529E-01
(PID.TID 0000.0001) %MON advcfl_W_hf_max              =   1.3165135839937E-01
(PID.TID 0000.0001) %MON pe_b_mean                    =   2.3319043972926E-04
(PID.TID 0000.0001) %MON ke_max                       =   1.8418870765420E-02
(PID.TID 0000.0001) %MON ke_mean                      =   2.7228434730251E-04
(PID.TID 0000.0001) %MON ke_vol                       =   1.3226782436723E+18
(PID.TID 0000.0001) %MON vort_r_min                   =  -1.0879015285577E-06
(PID.TID 0000.0001) %MON vort_r_max                   =   6.8560795154870E-07
(PID.TID 0000.0001) %MON vort_a_mean                  =  -2.5205768226265E-05
(PID.TID 0000.0001) %MON vort_a_sd                    =   7.3403397301948E-05
(PID.TID 0000.0001) %MON vort_p_mean                  =  -3.1758668086857E-05
(PID.TID 0000.0001) %MON vort_p_sd                    =   1.3126295987008E-04
(PID.TID 0000.0001) %MON surfExpan_theta_mean         =   1.4408124962627E-05
(PID.TID 0000.0001) %MON surfExpan_salt_mean          =   1.0315071251404E-06
(PID.TID 0000.0001) // =======================================================
(PID.TID 0000.0001) // End MONITOR dynamic field statistics
(PID.TID 0000.0001) // =======================================================
time,SST,SSS,fu,fv,Q,E-P,i0,i1,a,b =   2.9376E+06  1.4580E-02  3.4529E+01 -2.2207E-02 -3.2163E-02  2.4975E+02  0.0000E+00     1     2  6.3333E-01  3.6667E-01
time,fu0,fu1,fu =   2.9376E+06 -3.5633E-02 -1.4435E-02 -2.2207E-02  6.3333E-01  3.6667E-01
 cg2d: Sum(rhs),rhsMax =  -2.41695552460897E-13  1.10412062009452E+01
(PID.TID 0000.0001)                    cg2d_init_res =    3.64462146758526E-01
(PID.TID 0000.0001)                       cg2d_iters =    24
(PID.TID 0000.0001)                         cg2d_res =    6.66344541527979E-14
(PID.TID 0000.0001) // =======================================================
(PID.TID 0000.0001) // Begin MONITOR dynamic field statistics
(PID.TID 0000.0001) // =======================================================
(PID.TID 0000.0001) %MON time_tsnumber                =                    69
(PID.TID 0000.0001) %MON time_secondsf                =   2.9808000000000E+06
(PID.TID 0000.0001) %MON dynstat_eta_max              =   1.3073816217948E+00
(PID.TID 0000.0001) %MON dynstat_eta_min              =  -1.4155091654345E+00
(PID.TID 0000.0001) %MON dynstat_eta_mean             =   1.2008787676954E-16
(PID.TID 0000.0001) %MON dynstat_eta_sd               =   4.2820887523599E-01
(PID.TID 0000.0001) %MON dynstat_eta_del2             =   1.9657942822234E-02
(PID.TID 0000.0001) %MON dynstat_uvel_max             =   1.8660352558640E-01
(PID.TID 0000.0001) %MON dynstat_uvel_min             =  -1.6969135894369E-01
(PID.TID 0000.0001) %MON dynstat_uvel_mean            =   2.0043456520150E-04
(PID.TID 0000.0001) %MON dynstat_uvel_sd              =   1.9222603806061E-02
(PID.TID 0000.0001) %MON dynstat_uvel_del2            =   5.0947189637715E-03
(PID.TID 0000.0001) %MON dynstat_vvel_max             =   1.8155388055650E-01
(PID.TID 0000.0001) %MON dynstat_vvel_min             =  -1.5191169153631E-01
(PID.TID 0000.0001) %MON dynstat_vvel_mean            =  -2.1218932353593E-03
(PID.TID 0000.0001) %MON dynstat_vvel_sd              =   1.5269331364703E-02
(PID.TID 0000.0001) %MON dynstat_vvel_del2            =   4.6490402808212E-03
(PID.TID 0000.0001) %MON dynstat_wvel_max             =   3.6337662432733E-04
(PID.TID 0000.0001) %MON dynstat_wvel_min             =  -2.3934973037037E-04
(PID.TID 0000.0001) %MON dynstat_wvel_mean            =  -2.2305950870084E-22
(PID.TID 0000.0001) %MON dynstat_wvel_sd              =   2.5051936430176E-05
(PID.TID 0000.0001) %MON dynstat_wvel_del2            =   9.8681672310389E-06
(PID.TID 0000.0001) %MON dynstat_theta_max            =   2.9706284648436E+01
(PID.TID 0000.0001) %MON dynstat_theta_min            =  -1.9568141952885E+00
(PID.TID 0000.0001) %MON dynstat_theta_mean           =   3.5914518224411E+00
(PID.TID 0000.0001) %MON dynstat_theta_sd             =   4.3397740313132E+00
(PID.TID 0000.0001) %MON dynstat_theta_del2           =   1.2971329949899E-01
(PID.TID 0000.0001) %MON dynstat_salt_max             =   3.7391868449221E+01
(PID.TID 0000.0001) %MON dynstat_salt_min             =   2.9781787517477E+01
(PID.TID 0000.0001) %MON dynstat_salt_mean            =   3.4716136086621E+01
(PID.TID 0000.0001) %MON dynstat_salt_sd              =   2.9398816117764E-01
(PID.TID 0000.0001) %MON dynstat_salt_del2            =   2.3679881890956E-02
(PID.TID 0000.0001) %MON advcfl_uvel_max              =   3.3226297605491E-02
(PID.TID 0000.0001) %MON advcfl_vvel_max              =   1.7636503608977E-02
(PID.TID 0000.0001) %MON advcfl_wvel_max              =   1.4049406388085E-01
(PID.TID 0000.0001) %MON advcfl_W_hf_max              =   1.4191444133243E-01
(PID.TID 0000.0001) %MON pe_b_mean                    =   2.3463485608536E-04
(PID.TID 0000.0001) %MON ke_max                       =   1.8358787837800E-02
(PID.TID 0000.0001) %MON ke_mean                      =   2.7458526193700E-04
(PID.TID 0000.0001) %MON ke_vol                       =   1.3226782436723E+18
(PID.TID 0000.0001) %MON vort_r_min                   =  -1.0794037784446E-06
(PID.TID 0000.0001) %MON vort_r_max                   =   6.7710802073833E-07
(PID.TID 0000.0001) %MON vort_a_mean                  =  -2.5205768185821E-05
(PID.TID 0000.0001) %MON vort_a_sd                    =   7.3403412186152E-05
(PID.TID 0000.0001) %MON vort_p_mean                  =  -3.1758668035899E-05
(PID.TID 0000.0001) %MON vort_p_sd                    =   1.3126292533657E-04
(PID.TID 0000.0001) %MON surfExpan_theta_mean         =   1.4756021812402E-05
(PID.TID 0000.0001) %MON surfExpan_salt_mean          =   1.1334711628749E-06
(PID.TID 0000.0001) // =======================================================
(PID.TID 0000.0001) // End MONITOR dynamic field statistics
(PID.TID 0000.0001) // =======================================================
time,SST,SSS,fu,fv,Q,E-P,i0,i1,a,b =   2.9808E+06 -1.0258E-02  3.4524E+01 -2.1854E-02 -3.1503E-02  2.4933E+02  0.0000E+00     1     2  6.5000E-01  3.5000E-01
time,fu0,fu1,fu =   2.9808E+06 -3.5633E-02 -1.4435E-02 -2.1854E-02  6.5000E-01  3.5000E-01
 cg2d: Sum(rhs),rhsMax =  -1.42441614059408E-13  1.04884339863539E+01
(PID.TID 0000.0001)                    cg2d_init_res =    3.94529825557499E-01
(PID.TID 0000.0001)                       cg2d_iters =    24
(PID.TID 0000.0001)                         cg2d_res =    7.47433725394653E-14
(PID.TID 0000.0001) // =======================================================
(PID.TID 0000.0001) // Begin MONITOR dynamic field statistics
(PID.TID 0000.0001) // =======================================================
(PID.TID 0000.0001) %MON time_tsnumber                =                    70
(PID.TID 0000.0001) %MON time_secondsf                =   3.0240000000000E+06
(PID.TID 0000.0001) %MON dynstat_eta_max              =   1.2429553733654E+00
(PID.TID 0000.0001) %MON dynstat_eta_min              =  -1.4199153524371E+00
(PID.TID 0000.0001) %MON dynstat_eta_mean             =   5.1341782292884E-17
(PID.TID 0000.0001) %MON dynstat_eta_sd               =   4.2955781505690E-01
(PID.TID 0000.0001) %MON dynstat_eta_del2             =   1.9560086782168E-02
(PID.TID 0000.0001) %MON dynstat_uvel_max             =   1.8460467992219E-01
(PID.TID 0000.0001) %MON dynstat_uvel_min             =  -1.6954833616372E-01
(PID.TID 0000.0001) %MON dynstat_uvel_mean            =   2.8004449748246E-04
(PID.TID 0000.0001) %MON dynstat_uvel_sd              =   1.9298301258805E-02
(PID.TID 0000.0001) %MON dynstat_uvel_del2            =   5.0883547979561E-03
(PID.TID 0000.0001) %MON dynstat_vvel_max             =   1.8279488125009E-01
(PID.TID 0000.0001) %MON dynstat_vvel_min             =  -1.5316325682288E-01
(PID.TID 0000.0001) %MON dynstat_vvel_mean            =  -2.0751667246245E-03
(PID.TID 0000.0001) %MON dynstat_vvel_sd              =   1.5307925742482E-02
(PID.TID 0000.0001) %MON dynstat_vvel_del2            =   4.6456641622251E-03
(PID.TID 0000.0001) %MON dynstat_wvel_max             =   3.6566803867015E-04
(PID.TID 0000.0001) %MON dynstat_wvel_min             =  -2.4433601414290E-04
(PID.TID 0000.0001) %MON dynstat_wvel_mean            =   2.1255634116294E-23
(PID.TID 0000.0001) %MON dynstat_wvel_sd              =   2.4922577630294E-05
(PID.TID 0000.0001) %MON dynstat_wvel_del2            =   9.8128639728360E-06
(PID.TID 0000.0001) %MON dynstat_theta_max            =   2.9709395206055E+01
(PID.TID 0000.0001) %MON dynstat_theta_min            =  -1.9553075529508E+00
(PID.TID 0000.0001) %MON dynstat_theta_mean           =   3.5913262357265E+00
(PID.TID 0000.0001) %MON dynstat_theta_sd             =   4.3394363932244E+00
(PID.TID 0000.0001) %MON dynstat_theta_del2           =   1.2954607430016E-01
(PID.TID 0000.0001) %MON dynstat_salt_max             =   3.7392197525033E+01
(PID.TID 0000.0001) %MON dynstat_salt_min             =   2.9779997430230E+01
(PID.TID 0000.0001) %MON dynstat_salt_mean            =   3.4716121782354E+01
(PID.TID 0000.0001) %MON dynstat_salt_sd              =   2.9398741009436E-01
(PID.TID 0000.0001) %MON dynstat_salt_del2            =   2.3646931942991E-02
(PID.TID 0000.0001) %MON advcfl_uvel_max              =   3.2140128193596E-02
(PID.TID 0000.0001) %MON advcfl_vvel_max              =   1.7757056874730E-02
(PID.TID 0000.0001) %MON advcfl_wvel_max              =   1.4825594547591E-01
(PID.TID 0000.0001) %MON advcfl_W_hf_max              =   1.4941466343877E-01
(PID.TID 0000.0001) %MON pe_b_mean                    =   2.3611547383950E-04
(PID.TID 0000.0001) %MON ke_max                       =   1.8284901818296E-02
(PID.TID 0000.0001) %MON ke_mean                      =   2.7636915207239E-04
(PID.TID 0000.0001) %MON ke_vol                       =   1.3226782436723E+18
(PID.TID 0000.0001) %MON vort_r_min                   =  -1.0692128790778E-06
(PID.TID 0000.0001) %MON vort_r_max                   =   6.6738789518763E-07
(PID.TID 0000.0001) %MON vort_a_mean                  =  -2.5205768145873E-05
(PID.TID 0000.0001) %MON vort_a_sd                    =   7.3403425782256E-05
(PID.TID 0000.0001) %MON vort_p_mean                  =  -3.1758667985566E-05
(PID.TID 0000.0001) %MON vort_p_sd                    =   1.3126289422067E-04
(PID.TID 0000.0001) %MON surfExpan_theta_mean         =   1.5039795429989E-05
(PID.TID 0000.0001) %MON surfExpan_salt_mean          =   1.2083382882872E-06
(PID.TID 0000.0001) // =======================================================
(PID.TID 0000.0001) // End MONITOR dynamic field statistics
(PID.TID 0000.0001) // =======================================================
time,SST,SSS,fu,fv,Q,E-P,i0,i1,a,b =   3.0240E+06 -3.5096E-02  3.4519E+01 -2.1501E-02 -3.0843E-02  2.4891E+02  0.0000E+00     1     2  6.6667E-01  3.3333E-01
time,fu0,fu1,fu =   3.0240E+06 -3.5633E-02 -1.4435E-02 -2.1501E-02  6.6667E-01  3.3333E-01
 cg2d: Sum(rhs),rhsMax =   3.21298543326520E-13  9.87521797535058E+00
(PID.TID 0000.0001)                    cg2d_init_res =    4.28946534876416E-01
(PID.TID 0000.0001)                       cg2d_iters =    24
(PID.TID 0000.0001)                         cg2d_res =    8.22695886675193E-14
(PID.TID 0000.0001) // =======================================================
(PID.TID 0000.0001) // Begin MONITOR dynamic field statistics
(PID.TID 0000.0001) // =======================================================
(PID.TID 0000.0001) %MON time_tsnumber                =                    71
(PID.TID 0000.0001) %MON time_secondsf                =   3.0672000000000E+06
(PID.TID 0000.0001) %MON dynstat_eta_max              =   1.1714548616755E+00
(PID.TID 0000.0001) %MON dynstat_eta_min              =  -1.4184055443750E+00
(PID.TID 0000.0001) %MON dynstat_eta_mean             =  -1.5798676111372E-17
(PID.TID 0000.0001) %MON dynstat_eta_sd               =   4.3096162082883E-01
(PID.TID 0000.0001) %MON dynstat_eta_del2             =   1.9434289593005E-02
(PID.TID 0000.0001) %MON dynstat_uvel_max             =   1.8984060813318E-01
(PID.TID 0000.0001) %MON dynstat_uvel_min             =  -1.6923699169690E-01
(PID.TID 0000.0001) %MON dynstat_uvel_mean            =   3.5412388925110E-04
(PID.TID 0000.0001) %MON dynstat_uvel_sd              =   1.9339002482037E-02
(PID.TID 0000.0001) %MON dynstat_uvel_del2            =   5.0814909614331E-03
(PID.TID 0000.0001) %MON dynstat_vvel_max             =   1.8365439569631E-01
(PID.TID 0000.0001) %MON dynstat_vvel_min             =  -1.5421197430545E-01
(PID.TID 0000.0001) %MON dynstat_vvel_mean            =  -2.0154263031373E-03
(PID.TID 0000.0001) %MON dynstat_vvel_sd              =   1.5349248809216E-02
(PID.TID 0000.0001) %MON dynstat_vvel_del2            =   4.6429272241627E-03
(PID.TID 0000.0001) %MON dynstat_wvel_max             =   3.6782925798111E-04
(PID.TID 0000.0001) %MON dynstat_wvel_min             =  -2.4791745969731E-04
(PID.TID 0000.0001) %MON dynstat_wvel_mean            =   1.9793577757394E-22
(PID.TID 0000.0001) %MON dynstat_wvel_sd              =   2.4793351400219E-05
(PID.TID 0000.0001) %MON dynstat_wvel_del2            =   9.7619497207474E-06
(PID.TID 0000.0001) %MON dynstat_theta_max            =   2.9712907419518E+01
(PID.TID 0000.0001) %MON dynstat_theta_min            =  -1.9532593172841E+00
(PID.TID 0000.0001) %MON dynstat_theta_mean           =   3.5911986097335E+00
(PID.TID 0000.0001) %MON dynstat_theta_sd             =   4.3390881392602E+00
(PID.TID 0000.0001) %MON dynstat_theta_del2           =   1.2935968478292E-01
(PID.TID 0000.0001) %MON dynstat_salt_max             =   3.7392530408886E+01
(PID.TID 0000.0001) %MON dynstat_salt_min             =   2.9778158523985E+01
(PID.TID 0000.0001) %MON dynstat_salt_mean            =   3.4716107146443E+01
(PID.TID 0000.0001) %MON dynstat_salt_sd              =   2.9398068689466E-01
(PID.TID 0000.0001) %MON dynstat_salt_del2            =   2.3608398046342E-02
(PID.TID 0000.0001) %MON advcfl_uvel_max              =   3.1539243027220E-02
(PID.TID 0000.0001) %MON advcfl_vvel_max              =   1.7840551810703E-02
(PID.TID 0000.0001) %MON advcfl_wvel_max              =   1.5307037273249E-01
(PID.TID 0000.0001) %MON advcfl_W_hf_max              =   1.5401318907499E-01
(PID.TID 0000.0001) %MON pe_b_mean                    =   2.3766125819556E-04
(PID.TID 0000.0001) %MON ke_max                       =   1.8195221133150E-02
(PID.TID 0000.0001) %MON ke_mean                      =   2.7756397838330E-04
(PID.TID 0000.0001) %MON ke_vol                       =   1.3226782436723E+18
(PID.TID 0000.0001) %MON vort_r_min                   =  -1.0573859702007E-06
(PID.TID 0000.0001) %MON vort_r_max                   =   6.5647317955861E-07
(PID.TID 0000.0001) %MON vort_a_mean                  =  -2.5205768106994E-05
(PID.TID 0000.0001) %MON vort_a_sd                    =   7.3403438174780E-05
(PID.TID 0000.0001) %MON vort_p_mean                  =  -3.1758667936580E-05
(PID.TID 0000.0001) %MON vort_p_sd                    =   1.3126286696609E-04
(PID.TID 0000.0001) %MON surfExpan_theta_mean         =   1.5258735304522E-05
(PID.TID 0000.0001) %MON surfExpan_salt_mean          =   1.2550986237524E-06
(PID.TID 0000.0001) // =======================================================
(PID.TID 0000.0001) // End MONITOR dynamic field statistics
(PID.TID 0000.0001) // =======================================================
time,SST,SSS,fu,fv,Q,E-P,i0,i1,a,b =   3.0672E+06 -5.9934E-02  3.4514E+01 -2.1147E-02 -3.0182E-02  2.4849E+02  0.0000E+00     1     2  6.8333E-01  3.1667E-01
time,fu0,fu1,fu =   3.0672E+06 -3.5633E-02 -1.4435E-02 -2.1147E-02  6.8333E-01  3.1667E-01
 cg2d: Sum(rhs),rhsMax =   3.60309004854287E-13  9.22003984975582E+00
(PID.TID 0000.0001)                    cg2d_init_res =    4.66718483991228E-01
(PID.TID 0000.0001)                       cg2d_iters =    24
(PID.TID 0000.0001)                         cg2d_res =    8.88302301256877E-14
(PID.TID 0000.0001) // =======================================================
(PID.TID 0000.0001) // Begin MONITOR dynamic field statistics
(PID.TID 0000.0001) // =======================================================
(PID.TID 0000.0001) %MON time_tsnumber                =                    72
(PID.TID 0000.0001) %MON time_secondsf                =   3.1104000000000E+06
(PID.TID 0000.0001) %MON dynstat_eta_max              =   1.0950314706791E+00
(PID.TID 0000.0001) %MON dynstat_eta_min              =  -1.4115933392831E+00
(PID.TID 0000.0001) %MON dynstat_eta_mean             =   1.4874280713696E-16
(PID.TID 0000.0001) %MON dynstat_eta_sd               =   4.3244294649700E-01
(PID.TID 0000.0001) %MON dynstat_eta_del2             =   1.9320419220720E-02
(PID.TID 0000.0001) %MON dynstat_uvel_max             =   1.9424974551830E-01
(PID.TID 0000.0001) %MON dynstat_uvel_min             =  -1.6876427029120E-01
(PID.TID 0000.0001) %MON dynstat_uvel_mean            =   4.2311063292391E-04
(PID.TID 0000.0001) %MON dynstat_uvel_sd              =   1.9343851507482E-02
(PID.TID 0000.0001) %MON dynstat_uvel_del2            =   5.0742251012077E-03
(PID.TID 0000.0001) %MON dynstat_vvel_max             =   1.8412679361733E-01
(PID.TID 0000.0001) %MON dynstat_vvel_min             =  -1.5506145941715E-01
(PID.TID 0000.0001) %MON dynstat_vvel_mean            =  -1.9448075523261E-03
(PID.TID 0000.0001) %MON dynstat_vvel_sd              =   1.5390328862899E-02
(PID.TID 0000.0001) %MON dynstat_vvel_del2            =   4.6422518321185E-03
(PID.TID 0000.0001) %MON dynstat_wvel_max             =   3.6986019817942E-04
(PID.TID 0000.0001) %MON dynstat_wvel_min             =  -2.5005890042570E-04
(PID.TID 0000.0001) %MON dynstat_wvel_mean            =  -3.8271828264323E-22
(PID.TID 0000.0001) %MON dynstat_wvel_sd              =   2.4658896353666E-05
(PID.TID 0000.0001) %MON dynstat_wvel_del2            =   9.7098975980292E-06
(PID.TID 0000.0001) %MON dynstat_theta_max            =   2.9716810220130E+01
(PID.TID 0000.0001) %MON dynstat_theta_min            =  -1.9505732363619E+00
(PID.TID 0000.0001) %MON dynstat_theta_mean           =   3.5910695408824E+00
(PID.TID 0000.0001) %MON dynstat_theta_sd             =   4.3387369372372E+00
(PID.TID 0000.0001) %MON dynstat_theta_del2           =   1.2923015658620E-01
(PID.TID 0000.0001) %MON dynstat_salt_max             =   3.7392860999365E+01
(PID.TID 0000.0001) %MON dynstat_salt_min             =   2.9776278290763E+01
(PID.TID 0000.0001) %MON dynstat_salt_mean            =   3.4716092478206E+01
(PID.TID 0000.0001) %MON dynstat_salt_sd              =   2.9397187264448E-01
(PID.TID 0000.0001) %MON dynstat_salt_del2            =   2.3577474330999E-02
(PID.TID 0000.0001) %MON advcfl_uvel_max              =   3.1063101932026E-02
(PID.TID 0000.0001) %MON advcfl_vvel_max              =   1.7886441480554E-02
(PID.TID 0000.0001) %MON advcfl_wvel_max              =   1.5487254662260E-01
(PID.TID 0000.0001) %MON advcfl_W_hf_max              =   1.5565010653786E-01
(PID.TID 0000.0001) %MON pe_b_mean                    =   2.3929787154829E-04
(PID.TID 0000.0001) %MON ke_max                       =   1.8087722336126E-02
(PID.TID 0000.0001) %MON ke_mean                      =   2.7811492022617E-04
(PID.TID 0000.0001) %MON ke_vol                       =   1.3226782436723E+18
(PID.TID 0000.0001) %MON vort_r_min                   =  -1.0440079158755E-06
(PID.TID 0000.0001) %MON vort_r_max                   =   6.4439429959915E-07
(PID.TID 0000.0001) %MON vort_a_mean                  =  -2.5205768069785E-05
(PID.TID 0000.0001) %MON vort_a_sd                    =   7.3403449454581E-05
(PID.TID 0000.0001) %MON vort_p_mean                  =  -3.1758667889697E-05
(PID.TID 0000.0001) %MON vort_p_sd                    =   1.3126284389232E-04
(PID.TID 0000.0001) %MON surfExpan_theta_mean         =   1.5411650809261E-05
(PID.TID 0000.0001) %MON surfExpan_salt_mean          =   1.2733233360897E-06
(PID.TID 0000.0001) // =======================================================
(PID.TID 0000.0001) // End MONITOR dynamic field statistics
(PID.TID 0000.0001) // =======================================================
time,SST,SSS,fu,fv,Q,E-P,i0,i1,a,b =   3.1104E+06 -8.4772E-02  3.4509E+01 -2.0794E-02 -2.9522E-02  2.4807E+02  0.0000E+00     1     2  7.0000E-01  3.0000E-01
time,fu0,fu1,fu =   3.1104E+06 -3.5633E-02 -1.4435E-02 -2.0794E-02  7.0000E-01  3.0000E-01
 cg2d: Sum(rhs),rhsMax =  -2.78332912273527E-13  8.54125171637300E+00
(PID.TID 0000.0001)                    cg2d_init_res =    5.06880830534362E-01
(PID.TID 0000.0001)                       cg2d_iters =    24
(PID.TID 0000.0001)                         cg2d_res =    9.00636202255459E-14
(PID.TID 0000.0001) // =======================================================
(PID.TID 0000.0001) // Begin MONITOR dynamic field statistics
(PID.TID 0000.0001) // =======================================================
(PID.TID 0000.0001) %MON time_tsnumber                =                    73
(PID.TID 0000.0001) %MON time_secondsf                =   3.1536000000000E+06
(PID.TID 0000.0001) %MON dynstat_eta_max              =   1.0158229809936E+00
(PID.TID 0000.0001) %MON dynstat_eta_min              =  -1.4003468521518E+00
(PID.TID 0000.0001) %MON dynstat_eta_mean             =  -3.3892537933153E-16
(PID.TID 0000.0001) %MON dynstat_eta_sd               =   4.3401687596066E-01
(PID.TID 0000.0001) %MON dynstat_eta_del2             =   1.9231599498100E-02
(PID.TID 0000.0001) %MON dynstat_uvel_max             =   1.9748084632785E-01
(PID.TID 0000.0001) %MON dynstat_uvel_min             =  -1.6813811051837E-01
(PID.TID 0000.0001) %MON dynstat_uvel_mean            =   4.8739743120332E-04
(PID.TID 0000.0001) %MON dynstat_uvel_sd              =   1.9313090137653E-02
(PID.TID 0000.0001) %MON dynstat_uvel_del2            =   5.0662641370484E-03
(PID.TID 0000.0001) %MON dynstat_vvel_max             =   1.8420768448663E-01
(PID.TID 0000.0001) %MON dynstat_vvel_min             =  -1.5571662206103E-01
(PID.TID 0000.0001) %MON dynstat_vvel_mean            =  -1.8653738096005E-03
(PID.TID 0000.0001) %MON dynstat_vvel_sd              =   1.5428185186659E-02
(PID.TID 0000.0001) %MON dynstat_vvel_del2            =   4.6413172789467E-03
(PID.TID 0000.0001) %MON dynstat_wvel_max             =   3.7176170760980E-04
(PID.TID 0000.0001) %MON dynstat_wvel_min             =  -2.5074138040763E-04
(PID.TID 0000.0001) %MON dynstat_wvel_mean            =  -2.2890319939031E-22
(PID.TID 0000.0001) %MON dynstat_wvel_sd              =   2.4514859224453E-05
(PID.TID 0000.0001) %MON dynstat_wvel_del2            =   9.6542556830752E-06
(PID.TID 0000.0001) %MON dynstat_theta_max            =   2.9721156212593E+01
(PID.TID 0000.0001) %MON dynstat_theta_min            =  -1.9473554112626E+00
(PID.TID 0000.0001) %MON dynstat_theta_mean           =   3.5909399474998E+00
(PID.TID 0000.0001) %MON dynstat_theta_sd             =   4.3383843909424E+00
(PID.TID 0000.0001) %MON dynstat_theta_del2           =   1.2911287847788E-01
(PID.TID 0000.0001) %MON dynstat_salt_max             =   3.7393182400558E+01
(PID.TID 0000.0001) %MON dynstat_salt_min             =   2.9774364316864E+01
(PID.TID 0000.0001) %MON dynstat_salt_mean            =   3.4716078102260E+01
(PID.TID 0000.0001) %MON dynstat_salt_sd              =   2.9395991286965E-01
(PID.TID 0000.0001) %MON dynstat_salt_del2            =   2.3550637953219E-02
(PID.TID 0000.0001) %MON advcfl_uvel_max              =   3.1054875252592E-02
(PID.TID 0000.0001) %MON advcfl_vvel_max              =   1.7894299379840E-02
(PID.TID 0000.0001) %MON advcfl_wvel_max              =   1.5367696904628E-01
(PID.TID 0000.0001) %MON advcfl_W_hf_max              =   1.5434343978437E-01
(PID.TID 0000.0001) %MON pe_b_mean                    =   2.4104294975509E-04
(PID.TID 0000.0001) %MON ke_max                       =   1.8253805205093E-02
(PID.TID 0000.0001) %MON ke_mean                      =   2.7798916430144E-04
(PID.TID 0000.0001) %MON ke_vol                       =   1.3226782436723E+18
(PID.TID 0000.0001) %MON vort_r_min                   =  -1.0291910500437E-06
(PID.TID 0000.0001) %MON vort_r_max                   =   6.5110084993149E-07
(PID.TID 0000.0001) %MON vort_a_mean                  =  -2.5205768034849E-05
(PID.TID 0000.0001) %MON vort_a_sd                    =   7.3403459705071E-05
(PID.TID 0000.0001) %MON vort_p_mean                  =  -3.1758667845679E-05
(PID.TID 0000.0001) %MON vort_p_sd                    =   1.3126282502079E-04
(PID.TID 0000.0001) %MON surfExpan_theta_mean         =   1.5502813530606E-05
(PID.TID 0000.0001) %MON surfExpan_salt_mean          =   1.2639703453732E-06
(PID.TID 0000.0001) // =======================================================
(PID.TID 0000.0001) // End MONITOR dynamic field statistics
(PID.TID 0000.0001) // =======================================================
time,SST,SSS,fu,fv,Q,E-P,i0,i1,a,b =   3.1536E+06 -1.0961E-01  3.4504E+01 -2.0441E-02 -2.8862E-02  2.4765E+02  0.0000E+00     1     2  7.1667E-01  2.8333E-01
time,fu0,fu1,fu =   3.1536E+06 -3.5633E-02 -1.4435E-02 -2.0441E-02  7.1667E-01  2.8333E-01
 cg2d: Sum(rhs),rhsMax =   1.16170961739215E-13  7.85660937628466E+00
(PID.TID 0000.0001)                    cg2d_init_res =    5.48481105210837E-01
(PID.TID 0000.0001)                       cg2d_iters =    24
(PID.TID 0000.0001)                         cg2d_res =    4.81059143507657E-14
(PID.TID 0000.0001) // =======================================================
(PID.TID 0000.0001) // Begin MONITOR dynamic field statistics
(PID.TID 0000.0001) // =======================================================
(PID.TID 0000.0001) %MON time_tsnumber                =                    74
(PID.TID 0000.0001) %MON time_secondsf                =   3.1968000000000E+06
(PID.TID 0000.0001) %MON dynstat_eta_max              =   9.3589924075215E-01
(PID.TID 0000.0001) %MON dynstat_eta_min              =  -1.3857195843135E+00
(PID.TID 0000.0001) %MON dynstat_eta_mean             =   5.5163843215523E-17
(PID.TID 0000.0001) %MON dynstat_eta_sd               =   4.3568827851541E-01
(PID.TID 0000.0001) %MON dynstat_eta_del2             =   1.9173077290984E-02
(PID.TID 0000.0001) %MON dynstat_uvel_max             =   1.9950835913101E-01
(PID.TID 0000.0001) %MON dynstat_uvel_min             =  -1.6736723224490E-01
(PID.TID 0000.0001) %MON dynstat_uvel_mean            =   5.4734908177930E-04
(PID.TID 0000.0001) %MON dynstat_uvel_sd              =   1.9247952161733E-02
(PID.TID 0000.0001) %MON dynstat_uvel_del2            =   5.0566207148377E-03
(PID.TID 0000.0001) %MON dynstat_vvel_max             =   1.8389406038006E-01
(PID.TID 0000.0001) %MON dynstat_vvel_min             =  -1.5618331563344E-01
(PID.TID 0000.0001) %MON dynstat_vvel_mean            =  -1.7791093610132E-03
(PID.TID 0000.0001) %MON dynstat_vvel_sd              =   1.5460171011526E-02
(PID.TID 0000.0001) %MON dynstat_vvel_del2            =   4.6386783360250E-03
(PID.TID 0000.0001) %MON dynstat_wvel_max             =   3.7353598790879E-04
(PID.TID 0000.0001) %MON dynstat_wvel_min             =  -2.4996266358087E-04
(PID.TID 0000.0001) %MON dynstat_wvel_mean            =  -2.3095754354439E-22
(PID.TID 0000.0001) %MON dynstat_wvel_sd              =   2.4358549475518E-05
(PID.TID 0000.0001) %MON dynstat_wvel_del2            =   9.5932542244718E-06
(PID.TID 0000.0001) %MON dynstat_theta_max            =   2.9726041907614E+01
(PID.TID 0000.0001) %MON dynstat_theta_min            =  -1.9436340944655E+00
(PID.TID 0000.0001) %MON dynstat_theta_mean           =   3.5908104561780E+00
(PID.TID 0000.0001) %MON dynstat_theta_sd             =   4.3380342589835E+00
(PID.TID 0000.0001) %MON dynstat_theta_del2           =   1.2898999978451E-01
(PID.TID 0000.0001) %MON dynstat_salt_max             =   3.7393487454148E+01
(PID.TID 0000.0001) %MON dynstat_salt_min             =   2.9772424019166E+01
(PID.TID 0000.0001) %MON dynstat_salt_mean            =   3.4716064291506E+01
(PID.TID 0000.0001) %MON dynstat_salt_sd              =   2.9394548280250E-01
(PID.TID 0000.0001) %MON dynstat_salt_del2            =   2.3523230664612E-02
(PID.TID 0000.0001) %MON advcfl_uvel_max              =   3.1036228798477E-02
(PID.TID 0000.0001) %MON advcfl_vvel_max              =   1.7863833312850E-02
(PID.TID 0000.0001) %MON advcfl_wvel_max              =   1.4957405657950E-01
(PID.TID 0000.0001) %MON advcfl_W_hf_max              =   1.5018573308470E-01
(PID.TID 0000.0001) %MON pe_b_mean                    =   2.4290304124505E-04
(PID.TID 0000.0001) %MON ke_max                       =   1.8746541554726E-02
(PID.TID 0000.0001) %MON ke_mean                      =   2.7717861289729E-04
(PID.TID 0000.0001) %MON ke_vol                       =   1.3226782436723E+18
(PID.TID 0000.0001) %MON vort_r_min                   =  -1.0130739725257E-06
(PID.TID 0000.0001) %MON vort_r_max                   =   6.5942488417641E-07
(PID.TID 0000.0001) %MON vort_a_mean                  =  -2.5205768002713E-05
(PID.TID 0000.0001) %MON vort_a_sd                    =   7.3403469005250E-05
(PID.TID 0000.0001) %MON vort_p_mean                  =  -3.1758667805187E-05
(PID.TID 0000.0001) %MON vort_p_sd                    =   1.3126281024434E-04
(PID.TID 0000.0001) %MON surfExpan_theta_mean         =   1.5535591578158E-05
(PID.TID 0000.0001) %MON surfExpan_salt_mean          =   1.2286728958639E-06
(PID.TID 0000.0001) // =======================================================
(PID.TID 0000.0001) // End MONITOR dynamic field statistics
(PID.TID 0000.0001) // =======================================================
time,SST,SSS,fu,fv,Q,E-P,i0,i1,a,b =   3.1968E+06 -1.3445E-01  3.4499E+01 -2.0088E-02 -2.8201E-02  2.4722E+02  0.0000E+00     1     2  7.3333E-01  2.6667E-01
time,fu0,fu1,fu =   3.1968E+06 -3.5633E-02 -1.4435E-02 -2.0088E-02  7.3333E-01  2.6667E-01
 cg2d: Sum(rhs),rhsMax =  -1.67199587508549E-13  7.50280922717384E+00
(PID.TID 0000.0001)                    cg2d_init_res =    5.65336928337045E-01
(PID.TID 0000.0001)                       cg2d_iters =    24
(PID.TID 0000.0001)                         cg2d_res =    9.43481733221066E-14
(PID.TID 0000.0001) // =======================================================
(PID.TID 0000.0001) // Begin MONITOR dynamic field statistics
(PID.TID 0000.0001) // =======================================================
(PID.TID 0000.0001) %MON time_tsnumber                =                    75
(PID.TID 0000.0001) %MON time_secondsf                =   3.2400000000000E+06
(PID.TID 0000.0001) %MON dynstat_eta_max              =   9.2083889099339E-01
(PID.TID 0000.0001) %MON dynstat_eta_min              =  -1.3688757039363E+00
(PID.TID 0000.0001) %MON dynstat_eta_mean             =  -1.2857774335811E-17
(PID.TID 0000.0001) %MON dynstat_eta_sd               =   4.3745071952984E-01
(PID.TID 0000.0001) %MON dynstat_eta_del2             =   1.9116822215948E-02
(PID.TID 0000.0001) %MON dynstat_uvel_max             =   2.0032288693635E-01
(PID.TID 0000.0001) %MON dynstat_uvel_min             =  -1.6646055397911E-01
(PID.TID 0000.0001) %MON dynstat_uvel_mean            =   6.0327283520939E-04
(PID.TID 0000.0001) %MON dynstat_uvel_sd              =   1.9150529885113E-02
(PID.TID 0000.0001) %MON dynstat_uvel_del2            =   5.0458278502614E-03
(PID.TID 0000.0001) %MON dynstat_vvel_max             =   1.8318439751051E-01
(PID.TID 0000.0001) %MON dynstat_vvel_min             =  -1.5646802470177E-01
(PID.TID 0000.0001) %MON dynstat_vvel_mean            =  -1.6878587976784E-03
(PID.TID 0000.0001) %MON dynstat_vvel_sd              =   1.5484227151148E-02
(PID.TID 0000.0001) %MON dynstat_vvel_del2            =   4.6340315657618E-03
(PID.TID 0000.0001) %MON dynstat_wvel_max             =   3.7518688336908E-04
(PID.TID 0000.0001) %MON dynstat_wvel_min             =  -2.4854276758964E-04
(PID.TID 0000.0001) %MON dynstat_wvel_mean            =  -9.0782123237463E-23
(PID.TID 0000.0001) %MON dynstat_wvel_sd              =   2.4189334885181E-05
(PID.TID 0000.0001) %MON dynstat_wvel_del2            =   9.5339179475785E-06
(PID.TID 0000.0001) %MON dynstat_theta_max            =   2.9731308777930E+01
(PID.TID 0000.0001) %MON dynstat_theta_min            =  -1.9394434137192E+00
(PID.TID 0000.0001) %MON dynstat_theta_mean           =   3.5906817009219E+00
(PID.TID 0000.0001) %MON dynstat_theta_sd             =   4.3376895731173E+00
(PID.TID 0000.0001) %MON dynstat_theta_del2           =   1.2888908479962E-01
(PID.TID 0000.0001) %MON dynstat_salt_max             =   3.7393769237483E+01
(PID.TID 0000.0001) %MON dynstat_salt_min             =   2.9770464408378E+01
(PID.TID 0000.0001) %MON dynstat_salt_mean            =   3.4716051294265E+01
(PID.TID 0000.0001) %MON dynstat_salt_sd              =   2.9392908785561E-01
(PID.TID 0000.0001) %MON dynstat_salt_del2            =   2.3497159021976E-02
(PID.TID 0000.0001) %MON advcfl_uvel_max              =   3.1008604993216E-02
(PID.TID 0000.0001) %MON advcfl_vvel_max              =   1.7794895255885E-02
(PID.TID 0000.0001) %MON advcfl_wvel_max              =   1.4272412841718E-01
(PID.TID 0000.0001) %MON advcfl_W_hf_max              =   1.4333806034910E-01
(PID.TID 0000.0001) %MON pe_b_mean                    =   2.4487219295598E-04
(PID.TID 0000.0001) %MON ke_max                       =   1.9084218062463E-02
(PID.TID 0000.0001) %MON ke_mean                      =   2.7570047993617E-04
(PID.TID 0000.0001) %MON ke_vol                       =   1.3226782436723E+18
(PID.TID 0000.0001) %MON vort_r_min                   =  -9.9581825339627E-07
(PID.TID 0000.0001) %MON vort_r_max                   =   6.6786206195930E-07
(PID.TID 0000.0001) %MON vort_a_mean                  =  -2.5205767974028E-05
(PID.TID 0000.0001) %MON vort_a_sd                    =   7.3403477420051E-05
(PID.TID 0000.0001) %MON vort_p_mean                  =  -3.1758667769045E-05
(PID.TID 0000.0001) %MON vort_p_sd                    =   1.3126279929895E-04
(PID.TID 0000.0001) %MON surfExpan_theta_mean         =   1.5514119733200E-05
(PID.TID 0000.0001) %MON surfExpan_salt_mean          =   1.1696540847021E-06
(PID.TID 0000.0001) // =======================================================
(PID.TID 0000.0001) // End MONITOR dynamic field statistics
(PID.TID 0000.0001) // =======================================================
time,SST,SSS,fu,fv,Q,E-P,i0,i1,a,b =   3.2400E+06 -1.5929E-01  3.4494E+01 -1.9734E-02 -2.7541E-02  2.4680E+02  0.0000E+00     1     2  7.5000E-01  2.5000E-01
time,fu0,fu1,fu =   3.2400E+06 -3.5633E-02 -1.4435E-02 -1.9734E-02  7.5000E-01  2.5000E-01
 cg2d: Sum(rhs),rhsMax =   3.35384497951452E-13  7.40659063231605E+00
(PID.TID 0000.0001)                    cg2d_init_res =    5.57569682945056E-01
(PID.TID 0000.0001)                       cg2d_iters =    25
(PID.TID 0000.0001)                         cg2d_res =    2.46976386386165E-14
(PID.TID 0000.0001) // =======================================================
(PID.TID 0000.0001) // Begin MONITOR dynamic field statistics
(PID.TID 0000.0001) // =======================================================
(PID.TID 0000.0001) %MON time_tsnumber                =                    76
(PID.TID 0000.0001) %MON time_secondsf                =   3.2832000000000E+06
(PID.TID 0000.0001) %MON dynstat_eta_max              =   9.0917163635192E-01
(PID.TID 0000.0001) %MON dynstat_eta_min              =  -1.3510136248055E+00
(PID.TID 0000.0001) %MON dynstat_eta_mean             =   1.1648852480607E-16
(PID.TID 0000.0001) %MON dynstat_eta_sd               =   4.3928698177223E-01
(PID.TID 0000.0001) %MON dynstat_eta_del2             =   1.9052190304623E-02
(PID.TID 0000.0001) %MON dynstat_uvel_max             =   2.0288053201173E-01
(PID.TID 0000.0001) %MON dynstat_uvel_min             =  -1.6542715216445E-01
(PID.TID 0000.0001) %MON dynstat_uvel_mean            =   6.5539480317000E-04
(PID.TID 0000.0001) %MON dynstat_uvel_sd              =   1.9023604089203E-02
(PID.TID 0000.0001) %MON dynstat_uvel_del2            =   5.0329922206941E-03
(PID.TID 0000.0001) %MON dynstat_vvel_max             =   1.8207880508012E-01
(PID.TID 0000.0001) %MON dynstat_vvel_min             =  -1.5657758387665E-01
(PID.TID 0000.0001) %MON dynstat_vvel_mean            =  -1.5932921656745E-03
(PID.TID 0000.0001) %MON dynstat_vvel_sd              =   1.5499024066141E-02
(PID.TID 0000.0001) %MON dynstat_vvel_del2            =   4.6275074959746E-03
(PID.TID 0000.0001) %MON dynstat_wvel_max             =   3.7671996455855E-04
(PID.TID 0000.0001) %MON dynstat_wvel_min             =  -2.4904222431389E-04
(PID.TID 0000.0001) %MON dynstat_wvel_mean            =  -2.4328323887978E-22
(PID.TID 0000.0001) %MON dynstat_wvel_sd              =   2.4008290635956E-05
(PID.TID 0000.0001) %MON dynstat_wvel_del2            =   9.4737039652686E-06
(PID.TID 0000.0001) %MON dynstat_theta_max            =   2.9736868462691E+01
(PID.TID 0000.0001) %MON dynstat_theta_min            =  -1.9348239557164E+00
(PID.TID 0000.0001) %MON dynstat_theta_mean           =   3.5905542322727E+00
(PID.TID 0000.0001) %MON dynstat_theta_sd             =   4.3373532301875E+00
(PID.TID 0000.0001) %MON dynstat_theta_del2           =   1.2883341886719E-01
(PID.TID 0000.0001) %MON dynstat_salt_max             =   3.7393953851097E+01
(PID.TID 0000.0001) %MON dynstat_salt_min             =   2.9768491890363E+01
(PID.TID 0000.0001) %MON dynstat_salt_mean            =   3.4716039321191E+01
(PID.TID 0000.0001) %MON dynstat_salt_sd              =   2.9391150505142E-01
(PID.TID 0000.0001) %MON dynstat_salt_del2            =   2.3472689169266E-02
(PID.TID 0000.0001) %MON advcfl_uvel_max              =   3.0973444883059E-02
(PID.TID 0000.0001) %MON advcfl_vvel_max              =   1.7687495817059E-02
(PID.TID 0000.0001) %MON advcfl_wvel_max              =   1.4948249326053E-01
(PID.TID 0000.0001) %MON advcfl_W_hf_max              =   1.4183751339492E-01
(PID.TID 0000.0001) %MON pe_b_mean                    =   2.4693228007592E-04
(PID.TID 0000.0001) %MON ke_max                       =   1.9260778084939E-02
(PID.TID 0000.0001) %MON ke_mean                      =   2.7359551947386E-04
(PID.TID 0000.0001) %MON ke_vol                       =   1.3226782436723E+18
(PID.TID 0000.0001) %MON vort_r_min                   =  -9.7760246296687E-07
(PID.TID 0000.0001) %MON vort_r_max                   =   6.7626115904656E-07
(PID.TID 0000.0001) %MON vort_a_mean                  =  -2.5205767949217E-05
(PID.TID 0000.0001) %MON vort_a_sd                    =   7.3403484999798E-05
(PID.TID 0000.0001) %MON vort_p_mean                  =  -3.1758667737784E-05
(PID.TID 0000.0001) %MON vort_p_sd                    =   1.3126279165290E-04
(PID.TID 0000.0001) %MON surfExpan_theta_mean         =   1.5445188198879E-05
(PID.TID 0000.0001) %MON surfExpan_salt_mean          =   1.0906360142950E-06
(PID.TID 0000.0001) // =======================================================
(PID.TID 0000.0001) // End MONITOR dynamic field statistics
(PID.TID 0000.0001) // =======================================================
time,SST,SSS,fu,fv,Q,E-P,i0,i1,a,b =   3.2832E+06 -1.8412E-01  3.4490E+01 -1.9381E-02 -2.6880E-02  2.4638E+02  0.0000E+00     1     2  7.6667E-01  2.3333E-01
time,fu0,fu1,fu =   3.2832E+06 -3.5633E-02 -1.4435E-02 -1.9381E-02  7.6667E-01  2.3333E-01
 cg2d: Sum(rhs),rhsMax =  -1.61301527690227E-13  8.12844729644666E+00
(PID.TID 0000.0001)                    cg2d_init_res =    4.89632238814924E-01
(PID.TID 0000.0001)                       cg2d_iters =    24
(PID.TID 0000.0001)                         cg2d_res =    9.78425595981017E-14
(PID.TID 0000.0001) // =======================================================
(PID.TID 0000.0001) // Begin MONITOR dynamic field statistics
(PID.TID 0000.0001) // =======================================================
(PID.TID 0000.0001) %MON time_tsnumber                =                    77
(PID.TID 0000.0001) %MON time_secondsf                =   3.3264000000000E+06
(PID.TID 0000.0001) %MON dynstat_eta_max              =   8.9505837372135E-01
(PID.TID 0000.0001) %MON dynstat_eta_min              =  -1.3332935176153E+00
(PID.TID 0000.0001) %MON dynstat_eta_mean             =  -1.3304152668179E-16
(PID.TID 0000.0001) %MON dynstat_eta_sd               =   4.4117100469032E-01
(PID.TID 0000.0001) %MON dynstat_eta_del2             =   1.9026924733781E-02
(PID.TID 0000.0001) %MON dynstat_uvel_max             =   2.0684506204715E-01
(PID.TID 0000.0001) %MON dynstat_uvel_min             =  -1.6427585018959E-01
(PID.TID 0000.0001) %MON dynstat_uvel_mean            =   7.0387419836350E-04
(PID.TID 0000.0001) %MON dynstat_uvel_sd              =   1.8870469728172E-02
(PID.TID 0000.0001) %MON dynstat_uvel_del2            =   5.0190583442195E-03
(PID.TID 0000.0001) %MON dynstat_vvel_max             =   1.8057911898025E-01
(PID.TID 0000.0001) %MON dynstat_vvel_min             =  -1.5651899511706E-01
(PID.TID 0000.0001) %MON dynstat_vvel_mean            =  -1.4968668769802E-03
(PID.TID 0000.0001) %MON dynstat_vvel_sd              =   1.5504003768262E-02
(PID.TID 0000.0001) %MON dynstat_vvel_del2            =   4.6180919090946E-03
(PID.TID 0000.0001) %MON dynstat_wvel_max             =   3.7814228788339E-04
(PID.TID 0000.0001) %MON dynstat_wvel_min             =  -2.4898929271526E-04
(PID.TID 0000.0001) %MON dynstat_wvel_mean            =   2.8393343565272E-22
(PID.TID 0000.0001) %MON dynstat_wvel_sd              =   2.3818377147549E-05
(PID.TID 0000.0001) %MON dynstat_wvel_del2            =   9.4083144587168E-06
(PID.TID 0000.0001) %MON dynstat_theta_max            =   2.9742625447037E+01
(PID.TID 0000.0001) %MON dynstat_theta_min            =  -1.9305256148064E+00
(PID.TID 0000.0001) %MON dynstat_theta_mean           =   3.5904285369043E+00
(PID.TID 0000.0001) %MON dynstat_theta_sd             =   4.3370271620650E+00
(PID.TID 0000.0001) %MON dynstat_theta_del2           =   1.2877913609015E-01
(PID.TID 0000.0001) %MON dynstat_salt_max             =   3.7394128529833E+01
(PID.TID 0000.0001) %MON dynstat_salt_min             =   2.9766512113688E+01
(PID.TID 0000.0001) %MON dynstat_salt_mean            =   3.4716028532037E+01
(PID.TID 0000.0001) %MON dynstat_salt_sd              =   2.9389299193903E-01
(PID.TID 0000.0001) %MON dynstat_salt_del2            =   2.3452087340702E-02
(PID.TID 0000.0001) %MON advcfl_uvel_max              =   3.0932114368626E-02
(PID.TID 0000.0001) %MON advcfl_vvel_max              =   1.7541813338492E-02
(PID.TID 0000.0001) %MON advcfl_wvel_max              =   1.5284096653353E-01
(PID.TID 0000.0001) %MON advcfl_W_hf_max              =   1.4485350635656E-01
(PID.TID 0000.0001) %MON pe_b_mean                    =   2.4905491848652E-04
(PID.TID 0000.0001) %MON ke_max                       =   1.9356942662565E-02
(PID.TID 0000.0001) %MON ke_mean                      =   2.7092465791956E-04
(PID.TID 0000.0001) %MON ke_vol                       =   1.3226782436723E+18
(PID.TID 0000.0001) %MON vort_r_min                   =  -9.5861657726955E-07
(PID.TID 0000.0001) %MON vort_r_max                   =   6.8446295244234E-07
(PID.TID 0000.0001) %MON vort_a_mean                  =  -2.5205767928654E-05
(PID.TID 0000.0001) %MON vort_a_sd                    =   7.3403491778429E-05
(PID.TID 0000.0001) %MON vort_p_mean                  =  -3.1758667711876E-05
(PID.TID 0000.0001) %MON vort_p_sd                    =   1.3126278669307E-04
(PID.TID 0000.0001) %MON surfExpan_theta_mean         =   1.5331050860952E-05
(PID.TID 0000.0001) %MON surfExpan_salt_mean          =   9.9486198466990E-07
(PID.TID 0000.0001) // =======================================================
(PID.TID 0000.0001) // End MONITOR dynamic field statistics
(PID.TID 0000.0001) // =======================================================
time,SST,SSS,fu,fv,Q,E-P,i0,i1,a,b =   3.3264E+06 -2.0896E-01  3.4485E+01 -1.9028E-02 -2.6220E-02  2.4596E+02  0.0000E+00     1     2  7.8333E-01  2.1667E-01
time,fu0,fu1,fu =   3.3264E+06 -3.5633E-02 -1.4435E-02 -1.9028E-02  7.8333E-01  2.1667E-01
 cg2d: Sum(rhs),rhsMax =   6.82370826510237E-14  8.77420670061259E+00
(PID.TID 0000.0001)                    cg2d_init_res =    4.33287789625511E-01
(PID.TID 0000.0001)                       cg2d_iters =    24
(PID.TID 0000.0001)                         cg2d_res =    8.72298271830105E-14
(PID.TID 0000.0001) // =======================================================
(PID.TID 0000.0001) // Begin MONITOR dynamic field statistics
(PID.TID 0000.0001) // =======================================================
(PID.TID 0000.0001) %MON time_tsnumber                =                    78
(PID.TID 0000.0001) %MON time_secondsf                =   3.3696000000000E+06
(PID.TID 0000.0001) %MON dynstat_eta_max              =   9.6652346253265E-01
(PID.TID 0000.0001) %MON dynstat_eta_min              =  -1.3167730785810E+00
(PID.TID 0000.0001) %MON dynstat_eta_mean             =  -8.0626644078989E-17
(PID.TID 0000.0001) %MON dynstat_eta_sd               =   4.4307080663909E-01
(PID.TID 0000.0001) %MON dynstat_eta_del2             =   1.9015013316984E-02
(PID.TID 0000.0001) %MON dynstat_uvel_max             =   2.1007661750462E-01
(PID.TID 0000.0001) %MON dynstat_uvel_min             =  -1.6301500409890E-01
(PID.TID 0000.0001) %MON dynstat_uvel_mean            =   7.4880321064051E-04
(PID.TID 0000.0001) %MON dynstat_uvel_sd              =   1.8694752994388E-02
(PID.TID 0000.0001) %MON dynstat_uvel_del2            =   5.0044117208939E-03
(PID.TID 0000.0001) %MON dynstat_vvel_max             =   1.7868895341978E-01
(PID.TID 0000.0001) %MON dynstat_vvel_min             =  -1.5629922561082E-01
(PID.TID 0000.0001) %MON dynstat_vvel_mean            =  -1.3998101213120E-03
(PID.TID 0000.0001) %MON dynstat_vvel_sd              =   1.5499328017902E-02
(PID.TID 0000.0001) %MON dynstat_vvel_del2            =   4.6065299811593E-03
(PID.TID 0000.0001) %MON dynstat_wvel_max             =   3.7946198150168E-04
(PID.TID 0000.0001) %MON dynstat_wvel_min             =  -2.4841895455261E-04
(PID.TID 0000.0001) %MON dynstat_wvel_mean            =  -2.3565817917778E-23
(PID.TID 0000.0001) %MON dynstat_wvel_sd              =   2.3623657470931E-05
(PID.TID 0000.0001) %MON dynstat_wvel_del2            =   9.3412274645056E-06
(PID.TID 0000.0001) %MON dynstat_theta_max            =   2.9748481024863E+01
(PID.TID 0000.0001) %MON dynstat_theta_min            =  -1.9305107033337E+00
(PID.TID 0000.0001) %MON dynstat_theta_mean           =   3.5903050851754E+00
(PID.TID 0000.0001) %MON dynstat_theta_sd             =   4.3367135421166E+00
(PID.TID 0000.0001) %MON dynstat_theta_del2           =   1.2873712894349E-01
(PID.TID 0000.0001) %MON dynstat_salt_max             =   3.7394263815271E+01
(PID.TID 0000.0001) %MON dynstat_salt_min             =   2.9764529866144E+01
(PID.TID 0000.0001) %MON dynstat_salt_mean            =   3.4716019047976E+01
(PID.TID 0000.0001) %MON dynstat_salt_sd              =   2.9387391121230E-01
(PID.TID 0000.0001) %MON dynstat_salt_del2            =   2.3429191204785E-02
(PID.TID 0000.0001) %MON advcfl_uvel_max              =   3.0885850498963E-02
(PID.TID 0000.0001) %MON advcfl_vvel_max              =   1.7358198911598E-02
(PID.TID 0000.0001) %MON advcfl_wvel_max              =   1.5144802596289E-01
(PID.TID 0000.0001) %MON advcfl_W_hf_max              =   1.4346775761831E-01
(PID.TID 0000.0001) %MON pe_b_mean                    =   2.5120453295050E-04
(PID.TID 0000.0001) %MON ke_max                       =   1.9614075873171E-02
(PID.TID 0000.0001) %MON ke_mean                      =   2.6776415155284E-04
(PID.TID 0000.0001) %MON ke_vol                       =   1.3226782436723E+18
(PID.TID 0000.0001) %MON vort_r_min                   =  -9.3905046483860E-07
(PID.TID 0000.0001) %MON vort_r_max                   =   6.9230695992331E-07
(PID.TID 0000.0001) %MON vort_a_mean                  =  -2.5205767912653E-05
(PID.TID 0000.0001) %MON vort_a_sd                    =   7.3403497773809E-05
(PID.TID 0000.0001) %MON vort_p_mean                  =  -3.1758667691714E-05
(PID.TID 0000.0001) %MON vort_p_sd                    =   1.3126278373337E-04
(PID.TID 0000.0001) %MON surfExpan_theta_mean         =   1.5175539474517E-05
(PID.TID 0000.0001) %MON surfExpan_salt_mean          =   8.8639038239039E-07
(PID.TID 0000.0001) // =======================================================
(PID.TID 0000.0001) // End MONITOR dynamic field statistics
(PID.TID 0000.0001) // =======================================================
time,SST,SSS,fu,fv,Q,E-P,i0,i1,a,b =   3.3696E+06 -2.3380E-01  3.4480E+01 -1.8674E-02 -2.5560E-02  2.4554E+02  0.0000E+00     1     2  8.0000E-01  2.0000E-01
time,fu0,fu1,fu =   3.3696E+06 -3.5633E-02 -1.4435E-02 -1.8674E-02  8.0000E-01  2.0000E-01
 cg2d: Sum(rhs),rhsMax =   3.45723449868274E-13  9.32820086546004E+00
(PID.TID 0000.0001)                    cg2d_init_res =    3.86634432699953E-01
(PID.TID 0000.0001)                       cg2d_iters =    24
(PID.TID 0000.0001)                         cg2d_res =    7.70211957068321E-14
(PID.TID 0000.0001) // =======================================================
(PID.TID 0000.0001) // Begin MONITOR dynamic field statistics
(PID.TID 0000.0001) // =======================================================
(PID.TID 0000.0001) %MON time_tsnumber                =                    79
(PID.TID 0000.0001) %MON time_secondsf                =   3.4128000000000E+06
(PID.TID 0000.0001) %MON dynstat_eta_max              =   1.0307367705191E+00
(PID.TID 0000.0001) %MON dynstat_eta_min              =  -1.3023549123696E+00
(PID.TID 0000.0001) %MON dynstat_eta_mean             =   2.0275147264473E-16
(PID.TID 0000.0001) %MON dynstat_eta_sd               =   4.4495188143692E-01
(PID.TID 0000.0001) %MON dynstat_eta_del2             =   1.9047063040058E-02
(PID.TID 0000.0001) %MON dynstat_uvel_max             =   2.1254822501612E-01
(PID.TID 0000.0001) %MON dynstat_uvel_min             =  -1.6165244829758E-01
(PID.TID 0000.0001) %MON dynstat_uvel_mean            =   7.9020793384710E-04
(PID.TID 0000.0001) %MON dynstat_uvel_sd              =   1.8500242043307E-02
(PID.TID 0000.0001) %MON dynstat_uvel_del2            =   4.9898268595097E-03
(PID.TID 0000.0001) %MON dynstat_vvel_max             =   1.7863438838925E-01
(PID.TID 0000.0001) %MON dynstat_vvel_min             =  -1.5592505482297E-01
(PID.TID 0000.0001) %MON dynstat_vvel_mean            =  -1.3030984962481E-03
(PID.TID 0000.0001) %MON dynstat_vvel_sd              =   1.5485758873791E-02
(PID.TID 0000.0001) %MON dynstat_vvel_del2            =   4.5935387689463E-03
(PID.TID 0000.0001) %MON dynstat_wvel_max             =   3.8068756180513E-04
(PID.TID 0000.0001) %MON dynstat_wvel_min             =  -2.4737159396432E-04
(PID.TID 0000.0001) %MON dynstat_wvel_mean            =   3.0341270700870E-23
(PID.TID 0000.0001) %MON dynstat_wvel_sd              =   2.3428768865428E-05
(PID.TID 0000.0001) %MON dynstat_wvel_del2            =   9.2754113929565E-06
(PID.TID 0000.0001) %MON dynstat_theta_max            =   2.9754335883732E+01
(PID.TID 0000.0001) %MON dynstat_theta_min            =  -1.9305282801237E+00
(PID.TID 0000.0001) %MON dynstat_theta_mean           =   3.5901843251899E+00
(PID.TID 0000.0001) %MON dynstat_theta_sd             =   4.3364137167650E+00
(PID.TID 0000.0001) %MON dynstat_theta_del2           =   1.2869891678241E-01
(PID.TID 0000.0001) %MON dynstat_salt_max             =   3.7394356928476E+01
(PID.TID 0000.0001) %MON dynstat_salt_min             =   2.9762549030329E+01
(PID.TID 0000.0001) %MON dynstat_salt_mean            =   3.4716010940532E+01
(PID.TID 0000.0001) %MON dynstat_salt_sd              =   2.9385492962435E-01
(PID.TID 0000.0001) %MON dynstat_salt_del2            =   2.3406083084734E-02
(PID.TID 0000.0001) %MON advcfl_uvel_max              =   3.0835696870708E-02
(PID.TID 0000.0001) %MON advcfl_vvel_max              =   1.7352898356441E-02
(PID.TID 0000.0001) %MON advcfl_wvel_max              =   1.4562636639755E-01
(PID.TID 0000.0001) %MON advcfl_W_hf_max              =   1.3797979835207E-01
(PID.TID 0000.0001) %MON pe_b_mean                    =   2.5334205856047E-04
(PID.TID 0000.0001) %MON ke_max                       =   2.0035380653525E-02
(PID.TID 0000.0001) %MON ke_mean                      =   2.6420009750460E-04
(PID.TID 0000.0001) %MON ke_vol                       =   1.3226782436723E+18
(PID.TID 0000.0001) %MON vort_r_min                   =  -9.1909171669577E-07
(PID.TID 0000.0001) %MON vort_r_max                   =   6.9963787621197E-07
(PID.TID 0000.0001) %MON vort_a_mean                  =  -2.5205767901430E-05
(PID.TID 0000.0001) %MON vort_a_sd                    =   7.3403502988431E-05
(PID.TID 0000.0001) %MON vort_p_mean                  =  -3.1758667677573E-05
(PID.TID 0000.0001) %MON vort_p_sd                    =   1.3126278192702E-04
(PID.TID 0000.0001) %MON surfExpan_theta_mean         =   1.4981084042141E-05
(PID.TID 0000.0001) %MON surfExpan_salt_mean          =   7.6923303756090E-07
(PID.TID 0000.0001) // =======================================================
(PID.TID 0000.0001) // End MONITOR dynamic field statistics
(PID.TID 0000.0001) // =======================================================
time,SST,SSS,fu,fv,Q,E-P,i0,i1,a,b =   3.4128E+06 -2.5864E-01  3.4475E+01 -1.8321E-02 -2.4899E-02  2.4512E+02  0.0000E+00     1     2  8.1667E-01  1.8333E-01
time,fu0,fu1,fu =   3.4128E+06 -3.5633E-02 -1.4435E-02 -1.8321E-02  8.1667E-01  1.8333E-01
 cg2d: Sum(rhs),rhsMax =   4.42215708496008E-13  9.78280927726706E+00
(PID.TID 0000.0001)                    cg2d_init_res =    3.48296814511304E-01
(PID.TID 0000.0001)                       cg2d_iters =    24
(PID.TID 0000.0001)                         cg2d_res =    5.94642396633121E-14
(PID.TID 0000.0001) // =======================================================
(PID.TID 0000.0001) // Begin MONITOR dynamic field statistics
(PID.TID 0000.0001) // =======================================================
(PID.TID 0000.0001) %MON time_tsnumber                =                    80
(PID.TID 0000.0001) %MON time_secondsf                =   3.4560000000000E+06
(PID.TID 0000.0001) %MON dynstat_eta_max              =   1.0839608193485E+00
(PID.TID 0000.0001) %MON dynstat_eta_min              =  -1.2907475680008E+00
(PID.TID 0000.0001) %MON dynstat_eta_mean             =   1.7926058834661E-17
(PID.TID 0000.0001) %MON dynstat_eta_sd               =   4.4678058009226E-01
(PID.TID 0000.0001) %MON dynstat_eta_del2             =   1.9115349531081E-02
(PID.TID 0000.0001) %MON dynstat_uvel_max             =   2.1424142269969E-01
(PID.TID 0000.0001) %MON dynstat_uvel_min             =  -1.6019545911154E-01
(PID.TID 0000.0001) %MON dynstat_uvel_mean            =   8.2807007873593E-04
(PID.TID 0000.0001) %MON dynstat_uvel_sd              =   1.8290736646086E-02
(PID.TID 0000.0001) %MON dynstat_uvel_del2            =   4.9755986814517E-03
(PID.TID 0000.0001) %MON dynstat_vvel_max             =   1.7948458077276E-01
(PID.TID 0000.0001) %MON dynstat_vvel_min             =  -1.5540292555967E-01
(PID.TID 0000.0001) %MON dynstat_vvel_mean            =  -1.2074594524850E-03
(PID.TID 0000.0001) %MON dynstat_vvel_sd              =   1.5464503732232E-02
(PID.TID 0000.0001) %MON dynstat_vvel_del2            =   4.5789289899295E-03
(PID.TID 0000.0001) %MON dynstat_wvel_max             =   3.8182715953405E-04
(PID.TID 0000.0001) %MON dynstat_wvel_min             =  -2.4589153976344E-04
(PID.TID 0000.0001) %MON dynstat_wvel_mean            =  -2.2619308099522E-22
(PID.TID 0000.0001) %MON dynstat_wvel_sd              =   2.3238312978237E-05
(PID.TID 0000.0001) %MON dynstat_wvel_del2            =   9.2118771446988E-06
(PID.TID 0000.0001) %MON dynstat_theta_max            =   2.9760095379913E+01
(PID.TID 0000.0001) %MON dynstat_theta_min            =  -1.9305858054888E+00
(PID.TID 0000.0001) %MON dynstat_theta_mean           =   3.5900666620256E+00
(PID.TID 0000.0001) %MON dynstat_theta_sd             =   4.3361283771974E+00
(PID.TID 0000.0001) %MON dynstat_theta_del2           =   1.2865480257802E-01
(PID.TID 0000.0001) %MON dynstat_salt_max             =   3.7394406144320E+01
(PID.TID 0000.0001) %MON dynstat_salt_min             =   2.9760572584387E+01
(PID.TID 0000.0001) %MON dynstat_salt_mean            =   3.4716004236382E+01
(PID.TID 0000.0001) %MON dynstat_salt_sd              =   2.9383613499814E-01
(PID.TID 0000.0001) %MON dynstat_salt_del2            =   2.3384742738953E-02
(PID.TID 0000.0001) %MON advcfl_uvel_max              =   3.0782512180780E-02
(PID.TID 0000.0001) %MON advcfl_vvel_max              =   1.7435487728776E-02
(PID.TID 0000.0001) %MON advcfl_wvel_max              =   1.3584355151868E-01
(PID.TID 0000.0001) %MON advcfl_W_hf_max              =   1.2882318950741E-01
(PID.TID 0000.0001) %MON pe_b_mean                    =   2.5542874849983E-04
(PID.TID 0000.0001) %MON ke_max                       =   2.0392660762509E-02
(PID.TID 0000.0001) %MON ke_mean                      =   2.6032298113307E-04
(PID.TID 0000.0001) %MON ke_vol                       =   1.3226782436723E+18
(PID.TID 0000.0001) %MON vort_r_min                   =  -8.9894464414180E-07
(PID.TID 0000.0001) %MON vort_r_max                   =   7.0631083576420E-07
(PID.TID 0000.0001) %MON vort_a_mean                  =  -2.5205767895108E-05
(PID.TID 0000.0001) %MON vort_a_sd                    =   7.3403507413045E-05
(PID.TID 0000.0001) %MON vort_p_mean                  =  -3.1758667669608E-05
(PID.TID 0000.0001) %MON vort_p_sd                    =   1.3126278042296E-04
(PID.TID 0000.0001) %MON surfExpan_theta_mean         =   1.4749044572163E-05
(PID.TID 0000.0001) %MON surfExpan_salt_mean          =   6.4735035101925E-07
(PID.TID 0000.0001) // =======================================================
(PID.TID 0000.0001) // End MONITOR dynamic field statistics
(PID.TID 0000.0001) // =======================================================
time,SST,SSS,fu,fv,Q,E-P,i0,i1,a,b =   3.4560E+06 -2.8348E-01  3.4470E+01 -1.7968E-02 -2.4239E-02  2.4470E+02  0.0000E+00     1     2  8.3333E-01  1.6667E-01
time,fu0,fu1,fu =   3.4560E+06 -3.5633E-02 -1.4435E-02 -1.7968E-02  8.3333E-01  1.6667E-01
 cg2d: Sum(rhs),rhsMax =   1.34572908372377E-13  1.01326126893237E+01
(PID.TID 0000.0001)                    cg2d_init_res =    3.17498477942037E-01
(PID.TID 0000.0001)                       cg2d_iters =    23
(PID.TID 0000.0001)                         cg2d_res =    7.55893004598354E-14
(PID.TID 0000.0001) // =======================================================
(PID.TID 0000.0001) // Begin MONITOR dynamic field statistics
(PID.TID 0000.0001) // =======================================================
(PID.TID 0000.0001) %MON time_tsnumber                =                    81
(PID.TID 0000.0001) %MON time_secondsf                =   3.4992000000000E+06
(PID.TID 0000.0001) %MON dynstat_eta_max              =   1.1252264912089E+00
(PID.TID 0000.0001) %MON dynstat_eta_min              =  -1.2824414139218E+00
(PID.TID 0000.0001) %MON dynstat_eta_mean             =  -1.9760219553223E-16
(PID.TID 0000.0001) %MON dynstat_eta_sd               =   4.4852706525272E-01
(PID.TID 0000.0001) %MON dynstat_eta_del2             =   1.9197138169627E-02
(PID.TID 0000.0001) %MON dynstat_uvel_max             =   2.1514660252135E-01
(PID.TID 0000.0001) %MON dynstat_uvel_min             =  -1.5865080657923E-01
(PID.TID 0000.0001) %MON dynstat_uvel_mean            =   8.6233987736748E-04
(PID.TID 0000.0001) %MON dynstat_uvel_sd              =   1.8069932921931E-02
(PID.TID 0000.0001) %MON dynstat_uvel_del2            =   4.9627430654759E-03
(PID.TID 0000.0001) %MON dynstat_vvel_max             =   1.8015089405445E-01
(PID.TID 0000.0001) %MON dynstat_vvel_min             =  -1.5473881246176E-01
(PID.TID 0000.0001) %MON dynstat_vvel_mean            =  -1.1133731245590E-03
(PID.TID 0000.0001) %MON dynstat_vvel_sd              =   1.5437039214430E-02
(PID.TID 0000.0001) %MON dynstat_vvel_del2            =   4.5644559824579E-03
(PID.TID 0000.0001) %MON dynstat_wvel_max             =   3.8288764655922E-04
(PID.TID 0000.0001) %MON dynstat_wvel_min             =  -2.4402580939213E-04
(PID.TID 0000.0001) %MON dynstat_wvel_mean            =  -2.0933929213286E-22
(PID.TID 0000.0001) %MON dynstat_wvel_sd              =   2.3056461448880E-05
(PID.TID 0000.0001) %MON dynstat_wvel_del2            =   9.1480039149299E-06
(PID.TID 0000.0001) %MON dynstat_theta_max            =   2.9765672981361E+01
(PID.TID 0000.0001) %MON dynstat_theta_min            =  -1.9306897151917E+00
(PID.TID 0000.0001) %MON dynstat_theta_mean           =   3.5899524678934E+00
(PID.TID 0000.0001) %MON dynstat_theta_sd             =   4.3358584190884E+00
(PID.TID 0000.0001) %MON dynstat_theta_del2           =   1.2863657806877E-01
(PID.TID 0000.0001) %MON dynstat_salt_max             =   3.7394410825910E+01
(PID.TID 0000.0001) %MON dynstat_salt_min             =   2.9758602649927E+01
(PID.TID 0000.0001) %MON dynstat_salt_mean            =   3.4715998919874E+01
(PID.TID 0000.0001) %MON dynstat_salt_sd              =   2.9381775562006E-01
(PID.TID 0000.0001) %MON dynstat_salt_del2            =   2.3360739293628E-02
(PID.TID 0000.0001) %MON advcfl_uvel_max              =   3.0726951040427E-02
(PID.TID 0000.0001) %MON advcfl_vvel_max              =   1.7500214720902E-02
(PID.TID 0000.0001) %MON advcfl_wvel_max              =   1.2268534408433E-01
(PID.TID 0000.0001) %MON advcfl_W_hf_max              =   1.1654079695338E-01
(PID.TID 0000.0001) %MON pe_b_mean                    =   2.5742961629051E-04
(PID.TID 0000.0001) %MON ke_max                       =   2.0721456925176E-02
(PID.TID 0000.0001) %MON ke_mean                      =   2.5622275062227E-04
(PID.TID 0000.0001) %MON ke_vol                       =   1.3226782436723E+18
(PID.TID 0000.0001) %MON vort_r_min                   =  -8.7880432793602E-07
(PID.TID 0000.0001) %MON vort_r_max                   =   7.1219747935670E-07
(PID.TID 0000.0001) %MON vort_a_mean                  =  -2.5205767893744E-05
(PID.TID 0000.0001) %MON vort_a_sd                    =   7.3403511029597E-05
(PID.TID 0000.0001) %MON vort_p_mean                  =  -3.1758667667889E-05
(PID.TID 0000.0001) %MON vort_p_sd                    =   1.3126277840524E-04
(PID.TID 0000.0001) %MON surfExpan_theta_mean         =   1.4481838240112E-05
(PID.TID 0000.0001) %MON surfExpan_salt_mean          =   5.2488028911019E-07
(PID.TID 0000.0001) // =======================================================
(PID.TID 0000.0001) // End MONITOR dynamic field statistics
(PID.TID 0000.0001) // =======================================================
time,SST,SSS,fu,fv,Q,E-P,i0,i1,a,b =   3.4992E+06 -3.0831E-01  3.4465E+01 -1.7614E-02 -2.3579E-02  2.4427E+02  0.0000E+00     1     2  8.5000E-01  1.5000E-01
time,fu0,fu1,fu =   3.4992E+06 -3.5633E-02 -1.4435E-02 -1.7614E-02  8.5000E-01  1.5000E-01
 cg2d: Sum(rhs),rhsMax =   1.76733627732517E-13  1.03744120597048E+01
(PID.TID 0000.0001)                    cg2d_init_res =    2.93823239437961E-01
(PID.TID 0000.0001)                       cg2d_iters =    24
(PID.TID 0000.0001)                         cg2d_res =    4.30140578303086E-14
(PID.TID 0000.0001) // =======================================================
(PID.TID 0000.0001) // Begin MONITOR dynamic field statistics
(PID.TID 0000.0001) // =======================================================
(PID.TID 0000.0001) %MON time_tsnumber                =                    82
(PID.TID 0000.0001) %MON time_secondsf                =   3.5424000000000E+06
(PID.TID 0000.0001) %MON dynstat_eta_max              =   1.1542048644336E+00
(PID.TID 0000.0001) %MON dynstat_eta_min              =  -1.2776998017238E+00
(PID.TID 0000.0001) %MON dynstat_eta_mean             =  -1.5474776478684E-16
(PID.TID 0000.0001) %MON dynstat_eta_sd               =   4.5016757870716E-01
(PID.TID 0000.0001) %MON dynstat_eta_del2             =   1.9248996077850E-02
(PID.TID 0000.0001) %MON dynstat_uvel_max             =   2.1526327394159E-01
(PID.TID 0000.0001) %MON dynstat_uvel_min             =  -1.5702483766310E-01
(PID.TID 0000.0001) %MON dynstat_uvel_mean            =   8.9294703511048E-04
(PID.TID 0000.0001) %MON dynstat_uvel_sd              =   1.7841340427768E-02
(PID.TID 0000.0001) %MON dynstat_uvel_del2            =   4.9512930280708E-03
(PID.TID 0000.0001) %MON dynstat_vvel_max             =   1.8060888590793E-01
(PID.TID 0000.0001) %MON dynstat_vvel_min             =  -1.5393813403538E-01
(PID.TID 0000.0001) %MON dynstat_vvel_mean            =  -1.0210853949288E-03
(PID.TID 0000.0001) %MON dynstat_vvel_sd              =   1.5404938950805E-02
(PID.TID 0000.0001) %MON dynstat_vvel_del2            =   4.5494330479362E-03
(PID.TID 0000.0001) %MON dynstat_wvel_max             =   3.8387405835428E-04
(PID.TID 0000.0001) %MON dynstat_wvel_min             =  -2.4182278893018E-04
(PID.TID 0000.0001) %MON dynstat_wvel_mean            =   9.6893155634788E-24
(PID.TID 0000.0001) %MON dynstat_wvel_sd              =   2.2886377698696E-05
(PID.TID 0000.0001) %MON dynstat_wvel_del2            =   9.0831297645576E-06
(PID.TID 0000.0001) %MON dynstat_theta_max            =   2.9770992874482E+01
(PID.TID 0000.0001) %MON dynstat_theta_min            =  -1.9308451688451E+00
(PID.TID 0000.0001) %MON dynstat_theta_mean           =   3.5898421196277E+00
(PID.TID 0000.0001) %MON dynstat_theta_sd             =   4.3356040006260E+00
(PID.TID 0000.0001) %MON dynstat_theta_del2           =   1.2862428371433E-01
(PID.TID 0000.0001) %MON dynstat_salt_max             =   3.7394371288200E+01
(PID.TID 0000.0001) %MON dynstat_salt_min             =   2.9756640579851E+01
(PID.TID 0000.0001) %MON dynstat_salt_mean            =   3.4715994934464E+01
(PID.TID 0000.0001) %MON dynstat_salt_sd              =   2.9379998030742E-01
(PID.TID 0000.0001) %MON dynstat_salt_del2            =   2.3340002031238E-02
(PID.TID 0000.0001) %MON advcfl_uvel_max              =   3.0669463398412E-02
(PID.TID 0000.0001) %MON advcfl_vvel_max              =   1.7544704956815E-02
(PID.TID 0000.0001) %MON advcfl_wvel_max              =   1.0682557841207E-01
(PID.TID 0000.0001) %MON advcfl_W_hf_max              =   1.0175687297669E-01
(PID.TID 0000.0001) %MON pe_b_mean                    =   2.5931618727243E-04
(PID.TID 0000.0001) %MON ke_max                       =   2.0940623385498E-02
(PID.TID 0000.0001) %MON ke_mean                      =   2.5198475859076E-04
(PID.TID 0000.0001) %MON ke_vol                       =   1.3226782436723E+18
(PID.TID 0000.0001) %MON vort_r_min                   =  -8.5885135051204E-07
(PID.TID 0000.0001) %MON vort_r_max                   =   7.1718998344928E-07
(PID.TID 0000.0001) %MON vort_a_mean                  =  -2.5205767897221E-05
(PID.TID 0000.0001) %MON vort_a_sd                    =   7.3403513815529E-05
(PID.TID 0000.0001) %MON vort_p_mean                  =  -3.1758667672270E-05
(PID.TID 0000.0001) %MON vort_p_sd                    =   1.3126277501789E-04
(PID.TID 0000.0001) %MON surfExpan_theta_mean         =   1.4181050490374E-05
(PID.TID 0000.0001) %MON surfExpan_salt_mean          =   4.0545449931349E-07
(PID.TID 0000.0001) // =======================================================
(PID.TID 0000.0001) // End MONITOR dynamic field statistics
(PID.TID 0000.0001) // =======================================================
time,SST,SSS,fu,fv,Q,E-P,i0,i1,a,b =   3.5424E+06 -3.3315E-01  3.4460E+01 -1.7261E-02 -2.2918E-02  2.4385E+02  0.0000E+00     1     2  8.6667E-01  1.3333E-01
time,fu0,fu1,fu =   3.5424E+06 -3.5633E-02 -1.4435E-02 -1.7261E-02  8.6667E-01  1.3333E-01
 cg2d: Sum(rhs),rhsMax =  -1.98632776893248E-13  1.05072064461796E+01
(PID.TID 0000.0001)                    cg2d_init_res =    2.77032865269007E-01
(PID.TID 0000.0001)                       cg2d_iters =    24
(PID.TID 0000.0001)                         cg2d_res =    5.23024335649261E-14
(PID.TID 0000.0001) // =======================================================
(PID.TID 0000.0001) // Begin MONITOR dynamic field statistics
(PID.TID 0000.0001) // =======================================================
(PID.TID 0000.0001) %MON time_tsnumber                =                    83
(PID.TID 0000.0001) %MON time_secondsf                =   3.5856000000000E+06
(PID.TID 0000.0001) %MON dynstat_eta_max              =   1.1708211949855E+00
(PID.TID 0000.0001) %MON dynstat_eta_min              =  -1.2765647799472E+00
(PID.TID 0000.0001) %MON dynstat_eta_mean             =   4.8629351960689E-17
(PID.TID 0000.0001) %MON dynstat_eta_sd               =   4.5168587056051E-01
(PID.TID 0000.0001) %MON dynstat_eta_del2             =   1.9282500864423E-02
(PID.TID 0000.0001) %MON dynstat_uvel_max             =   2.1460011896494E-01
(PID.TID 0000.0001) %MON dynstat_uvel_min             =  -1.5532358765533E-01
(PID.TID 0000.0001) %MON dynstat_uvel_mean            =   9.1982329440252E-04
(PID.TID 0000.0001) %MON dynstat_uvel_sd              =   1.7608236273672E-02
(PID.TID 0000.0001) %MON dynstat_uvel_del2            =   4.9407069209418E-03
(PID.TID 0000.0001) %MON dynstat_vvel_max             =   1.8083996251285E-01
(PID.TID 0000.0001) %MON dynstat_vvel_min             =  -1.5300565890022E-01
(PID.TID 0000.0001) %MON dynstat_vvel_mean            =  -9.3062508674017E-04
(PID.TID 0000.0001) %MON dynstat_vvel_sd              =   1.5369722919787E-02
(PID.TID 0000.0001) %MON dynstat_vvel_del2            =   4.5337277018052E-03
(PID.TID 0000.0001) %MON dynstat_wvel_max             =   3.8478877657499E-04
(PID.TID 0000.0001) %MON dynstat_wvel_min             =  -2.3933113394462E-04
(PID.TID 0000.0001) %MON dynstat_wvel_mean            =  -4.3148593258232E-22
(PID.TID 0000.0001) %MON dynstat_wvel_sd              =   2.2730074624290E-05
(PID.TID 0000.0001) %MON dynstat_wvel_del2            =   9.0223732845095E-06
(PID.TID 0000.0001) %MON dynstat_theta_max            =   2.9775992102888E+01
(PID.TID 0000.0001) %MON dynstat_theta_min            =  -1.9310481149557E+00
(PID.TID 0000.0001) %MON dynstat_theta_mean           =   3.5897359401726E+00
(PID.TID 0000.0001) %MON dynstat_theta_sd             =   4.3353655637940E+00
(PID.TID 0000.0001) %MON dynstat_theta_del2           =   1.2861911277963E-01
(PID.TID 0000.0001) %MON dynstat_salt_max             =   3.7394288645964E+01
(PID.TID 0000.0001) %MON dynstat_salt_min             =   2.9754687076432E+01
(PID.TID 0000.0001) %MON dynstat_salt_mean            =   3.4715992188158E+01
(PID.TID 0000.0001) %MON dynstat_salt_sd              =   2.9378270045492E-01
(PID.TID 0000.0001) %MON dynstat_salt_del2            =   2.3317294561594E-02
(PID.TID 0000.0001) %MON advcfl_uvel_max              =   3.0610326138772E-02
(PID.TID 0000.0001) %MON advcfl_vvel_max              =   1.7567152195971E-02
(PID.TID 0000.0001) %MON advcfl_wvel_max              =   8.8994277373115E-02
(PID.TID 0000.0001) %MON advcfl_W_hf_max              =   8.5147523923937E-02
(PID.TID 0000.0001) %MON pe_b_mean                    =   2.6106834191038E-04
(PID.TID 0000.0001) %MON ke_max                       =   2.1047660800911E-02
(PID.TID 0000.0001) %MON ke_mean                      =   2.4768687547557E-04
(PID.TID 0000.0001) %MON ke_vol                       =   1.3226782436723E+18
(PID.TID 0000.0001) %MON vort_r_min                   =  -8.3924813098622E-07
(PID.TID 0000.0001) %MON vort_r_max                   =   7.2120378943327E-07
(PID.TID 0000.0001) %MON vort_a_mean                  =  -2.5205767904858E-05
(PID.TID 0000.0001) %MON vort_a_sd                    =   7.3403515752846E-05
(PID.TID 0000.0001) %MON vort_p_mean                  =  -3.1758667681892E-05
(PID.TID 0000.0001) %MON vort_p_sd                    =   1.3126276948686E-04
(PID.TID 0000.0001) %MON surfExpan_theta_mean         =   1.3848719358068E-05
(PID.TID 0000.0001) %MON surfExpan_salt_mean          =   2.9237254579015E-07
(PID.TID 0000.0001) // =======================================================
(PID.TID 0000.0001) // End MONITOR dynamic field statistics
(PID.TID 0000.0001) // =======================================================
time,SST,SSS,fu,fv,Q,E-P,i0,i1,a,b =   3.5856E+06 -3.5799E-01  3.4455E+01 -1.6908E-02 -2.2258E-02  2.4343E+02  0.0000E+00     1     2  8.8333E-01  1.1667E-01
time,fu0,fu1,fu =   3.5856E+06 -3.5633E-02 -1.4435E-02 -1.6908E-02  8.8333E-01  1.1667E-01
 cg2d: Sum(rhs),rhsMax =   2.64302468799826E-13  1.05321341882150E+01
(PID.TID 0000.0001)                    cg2d_init_res =    2.66908392757260E-01
(PID.TID 0000.0001)                       cg2d_iters =    24
(PID.TID 0000.0001)                         cg2d_res =    4.88349782960628E-14
(PID.TID 0000.0001) // =======================================================
(PID.TID 0000.0001) // Begin MONITOR dynamic field statistics
(PID.TID 0000.0001) // =======================================================
(PID.TID 0000.0001) %MON time_tsnumber                =                    84
(PID.TID 0000.0001) %MON time_secondsf                =   3.6288000000000E+06
(PID.TID 0000.0001) %MON dynstat_eta_max              =   1.1752433057050E+00
(PID.TID 0000.0001) %MON dynstat_eta_min              =  -1.2788754378053E+00
(PID.TID 0000.0001) %MON dynstat_eta_mean             =  -9.8629598221386E-17
(PID.TID 0000.0001) %MON dynstat_eta_sd               =   4.5307377442016E-01
(PID.TID 0000.0001) %MON dynstat_eta_del2             =   1.9292316724506E-02
(PID.TID 0000.0001) %MON dynstat_uvel_max             =   2.1317488553673E-01
(PID.TID 0000.0001) %MON dynstat_uvel_min             =  -1.5355290951215E-01
(PID.TID 0000.0001) %MON dynstat_uvel_mean            =   9.4291973189254E-04
(PID.TID 0000.0001) %MON dynstat_uvel_sd              =   1.7373650231655E-02
(PID.TID 0000.0001) %MON dynstat_uvel_del2            =   4.9302525766268E-03
(PID.TID 0000.0001) %MON dynstat_vvel_max             =   1.8083168093400E-01
(PID.TID 0000.0001) %MON dynstat_vvel_min             =  -1.5194546100623E-01
(PID.TID 0000.0001) %MON dynstat_vvel_mean            =  -8.4183175365722E-04
(PID.TID 0000.0001) %MON dynstat_vvel_sd              =   1.5332740025146E-02
(PID.TID 0000.0001) %MON dynstat_vvel_del2            =   4.5192275047015E-03
(PID.TID 0000.0001) %MON dynstat_wvel_max             =   3.8563082939192E-04
(PID.TID 0000.0001) %MON dynstat_wvel_min             =  -2.3659897725293E-04
(PID.TID 0000.0001) %MON dynstat_wvel_mean            =  -1.8875925007253E-22
(PID.TID 0000.0001) %MON dynstat_wvel_sd              =   2.2588285618041E-05
(PID.TID 0000.0001) %MON dynstat_wvel_del2            =   8.9669967135930E-06
(PID.TID 0000.0001) %MON dynstat_theta_max            =   2.9780623039459E+01
(PID.TID 0000.0001) %MON dynstat_theta_min            =  -1.9312880734132E+00
(PID.TID 0000.0001) %MON dynstat_theta_mean           =   3.5896342685884E+00
(PID.TID 0000.0001) %MON dynstat_theta_sd             =   4.3351418024481E+00
(PID.TID 0000.0001) %MON dynstat_theta_del2           =   1.2862334299942E-01
(PID.TID 0000.0001) %MON dynstat_salt_max             =   3.7394164667587E+01
(PID.TID 0000.0001) %MON dynstat_salt_min             =   2.9752742329446E+01
(PID.TID 0000.0001) %MON dynstat_salt_mean            =   3.4715990560509E+01
(PID.TID 0000.0001) %MON dynstat_salt_sd              =   2.9376473857924E-01
(PID.TID 0000.0001) %MON dynstat_salt_del2            =   2.3291092275985E-02
(PID.TID 0000.0001) %MON advcfl_uvel_max              =   3.0549684367524E-02
(PID.TID 0000.0001) %MON advcfl_vvel_max              =   1.7566347706996E-02
(PID.TID 0000.0001) %MON advcfl_wvel_max              =   7.1776768041779E-02
(PID.TID 0000.0001) %MON advcfl_W_hf_max              =   6.7411068982503E-02
(PID.TID 0000.0001) %MON pe_b_mean                    =   2.6267518624235E-04
(PID.TID 0000.0001) %MON ke_max                       =   2.1042063858895E-02
(PID.TID 0000.0001) %MON ke_mean                      =   2.4339777593497E-04
(PID.TID 0000.0001) %MON ke_vol                       =   1.3226782436723E+18
(PID.TID 0000.0001) %MON vort_r_min                   =  -8.2013597267459E-07
(PID.TID 0000.0001) %MON vort_r_max                   =   7.2417935020257E-07
(PID.TID 0000.0001) %MON vort_a_mean                  =  -2.5205767917138E-05
(PID.TID 0000.0001) %MON vort_a_sd                    =   7.3403516814857E-05
(PID.TID 0000.0001) %MON vort_p_mean                  =  -3.1758667697365E-05
(PID.TID 0000.0001) %MON vort_p_sd                    =   1.3126276104429E-04
(PID.TID 0000.0001) %MON surfExpan_theta_mean         =   1.3485905132509E-05
(PID.TID 0000.0001) %MON surfExpan_salt_mean          =   1.8835567940394E-07
(PID.TID 0000.0001) // =======================================================
(PID.TID 0000.0001) // End MONITOR dynamic field statistics
(PID.TID 0000.0001) // =======================================================
time,SST,SSS,fu,fv,Q,E-P,i0,i1,a,b =   3.6288E+06 -3.8283E-01  3.4450E+01 -1.6555E-02 -2.1598E-02  2.4301E+02  0.0000E+00     1     2  9.0000E-01  1.0000E-01
time,fu0,fu1,fu =   3.6288E+06 -3.5633E-02 -1.4435E-02 -1.6555E-02  9.0000E-01  1.0000E-01
 cg2d: Sum(rhs),rhsMax =  -1.85129689356245E-14  1.04523927018673E+01
(PID.TID 0000.0001)                    cg2d_init_res =    2.63157747782582E-01
(PID.TID 0000.0001)                       cg2d_iters =    24
(PID.TID 0000.0001)                         cg2d_res =    4.56324202102313E-14
(PID.TID 0000.0001) // =======================================================
(PID.TID 0000.0001) // Begin MONITOR dynamic field statistics
(PID.TID 0000.0001) // =======================================================
(PID.TID 0000.0001) %MON time_tsnumber                =                    85
(PID.TID 0000.0001) %MON time_secondsf                =   3.6720000000000E+06
(PID.TID 0000.0001) %MON dynstat_eta_max              =   1.1678665624217E+00
(PID.TID 0000.0001) %MON dynstat_eta_min              =  -1.2842965201727E+00
(PID.TID 0000.0001) %MON dynstat_eta_mean             =  -9.3971324146532E-17
(PID.TID 0000.0001) %MON dynstat_eta_sd               =   4.5433111059248E-01
(PID.TID 0000.0001) %MON dynstat_eta_del2             =   1.9266505553399E-02
(PID.TID 0000.0001) %MON dynstat_uvel_max             =   2.1101423939508E-01
(PID.TID 0000.0001) %MON dynstat_uvel_min             =  -1.5449634794294E-01
(PID.TID 0000.0001) %MON dynstat_uvel_mean            =   9.6222374706623E-04
(PID.TID 0000.0001) %MON dynstat_uvel_sd              =   1.7140381141291E-02
(PID.TID 0000.0001) %MON dynstat_uvel_del2            =   4.9215714984909E-03
(PID.TID 0000.0001) %MON dynstat_vvel_max             =   1.8057779073766E-01
(PID.TID 0000.0001) %MON dynstat_vvel_min             =  -1.5076094988129E-01
(PID.TID 0000.0001) %MON dynstat_vvel_mean            =  -7.5439287278344E-04
(PID.TID 0000.0001) %MON dynstat_vvel_sd              =   1.5295078486879E-02
(PID.TID 0000.0001) %MON dynstat_vvel_del2            =   4.5056868881983E-03
(PID.TID 0000.0001) %MON dynstat_wvel_max             =   3.8639548394613E-04
(PID.TID 0000.0001) %MON dynstat_wvel_min             =  -2.3367293007138E-04
(PID.TID 0000.0001) %MON dynstat_wvel_mean            =   1.3497812413536E-22
(PID.TID 0000.0001) %MON dynstat_wvel_sd              =   2.2460546153702E-05
(PID.TID 0000.0001) %MON dynstat_wvel_del2            =   8.9148169677150E-06
(PID.TID 0000.0001) %MON dynstat_theta_max            =   2.9784854893329E+01
(PID.TID 0000.0001) %MON dynstat_theta_min            =  -1.9315920933085E+00
(PID.TID 0000.0001) %MON dynstat_theta_mean           =   3.5895372981470E+00
(PID.TID 0000.0001) %MON dynstat_theta_sd             =   4.3349346866156E+00
(PID.TID 0000.0001) %MON dynstat_theta_del2           =   1.2863672248292E-01
(PID.TID 0000.0001) %MON dynstat_salt_max             =   3.7394001597392E+01
(PID.TID 0000.0001) %MON dynstat_salt_min             =   2.9750806164070E+01
(PID.TID 0000.0001) %MON dynstat_salt_mean            =   3.4715989907634E+01
(PID.TID 0000.0001) %MON dynstat_salt_sd              =   2.9374806601135E-01
(PID.TID 0000.0001) %MON dynstat_salt_del2            =   2.3268888621415E-02
(PID.TID 0000.0001) %MON advcfl_uvel_max              =   3.0487575045664E-02
(PID.TID 0000.0001) %MON advcfl_vvel_max              =   1.7541684310376E-02
(PID.TID 0000.0001) %MON advcfl_wvel_max              =   6.9970689469545E-02
(PID.TID 0000.0001) %MON advcfl_W_hf_max              =   6.0461806080969E-02
(PID.TID 0000.0001) %MON pe_b_mean                    =   2.6413512192395E-04
(PID.TID 0000.0001) %MON ke_max                       =   2.0925317122753E-02
(PID.TID 0000.0001) %MON ke_mean                      =   2.3917625475741E-04
(PID.TID 0000.0001) %MON ke_vol                       =   1.3226782436723E+18
(PID.TID 0000.0001) %MON vort_r_min                   =  -8.0164246638601E-07
(PID.TID 0000.0001) %MON vort_r_max                   =   7.2608275832769E-07
(PID.TID 0000.0001) %MON vort_a_mean                  =  -2.5205767933787E-05
(PID.TID 0000.0001) %MON vort_a_sd                    =   7.3403516990748E-05
(PID.TID 0000.0001) %MON vort_p_mean                  =  -3.1758667718343E-05
(PID.TID 0000.0001) %MON vort_p_sd                    =   1.3126274906645E-04
(PID.TID 0000.0001) %MON surfExpan_theta_mean         =   1.3095946294842E-05
(PID.TID 0000.0001) %MON surfExpan_salt_mean          =   9.5615886047849E-08
(PID.TID 0000.0001) // =======================================================
(PID.TID 0000.0001) // End MONITOR dynamic field statistics
(PID.TID 0000.0001) // =======================================================
time,SST,SSS,fu,fv,Q,E-P,i0,i1,a,b =   3.6720E+06 -4.0767E-01  3.4446E+01 -1.6201E-02 -2.0937E-02  2.4259E+02  0.0000E+00     1     2  9.1667E-01  8.3333E-02
time,fu0,fu1,fu =   3.6720E+06 -3.5633E-02 -1.4435E-02 -1.6201E-02  9.1667E-01  8.3333E-02
 cg2d: Sum(rhs),rhsMax =   1.91985316533305E-13  1.02769503248940E+01
(PID.TID 0000.0001)                    cg2d_init_res =    2.65257357710359E-01
(PID.TID 0000.0001)                       cg2d_iters =    24
(PID.TID 0000.0001)                         cg2d_res =    4.32173455162614E-14
(PID.TID 0000.0001) // =======================================================
(PID.TID 0000.0001) // Begin MONITOR dynamic field statistics
(PID.TID 0000.0001) // =======================================================
(PID.TID 0000.0001) %MON time_tsnumber                =                    86
(PID.TID 0000.0001) %MON time_secondsf                =   3.7152000000000E+06
(PID.TID 0000.0001) %MON dynstat_eta_max              =   1.1492956486497E+00
(PID.TID 0000.0001) %MON dynstat_eta_min              =  -1.2923526703888E+00
(PID.TID 0000.0001) %MON dynstat_eta_mean             =  -3.1365882076569E-17
(PID.TID 0000.0001) %MON dynstat_eta_sd               =   4.5546486336653E-01
(PID.TID 0000.0001) %MON dynstat_eta_del2             =   1.9243647249995E-02
(PID.TID 0000.0001) %MON dynstat_uvel_max             =   2.0815362644271E-01
(PID.TID 0000.0001) %MON dynstat_uvel_min             =  -1.5563922675921E-01
(PID.TID 0000.0001) %MON dynstat_uvel_mean            =   9.7775186428531E-04
(PID.TID 0000.0001) %MON dynstat_uvel_sd              =   1.6911036205364E-02
(PID.TID 0000.0001) %MON dynstat_uvel_del2            =   4.9150889451996E-03
(PID.TID 0000.0001) %MON dynstat_vvel_max             =   1.8007805180469E-01
(PID.TID 0000.0001) %MON dynstat_vvel_min             =  -1.4989383664900E-01
(PID.TID 0000.0001) %MON dynstat_vvel_mean            =  -6.6786312709893E-04
(PID.TID 0000.0001) %MON dynstat_vvel_sd              =   1.5257512617928E-02
(PID.TID 0000.0001) %MON dynstat_vvel_del2            =   4.4921044628834E-03
(PID.TID 0000.0001) %MON dynstat_wvel_max             =   3.8707411213168E-04
(PID.TID 0000.0001) %MON dynstat_wvel_min             =  -2.3059729017662E-04
(PID.TID 0000.0001) %MON dynstat_wvel_mean            =   2.3707017749444E-22
(PID.TID 0000.0001) %MON dynstat_wvel_sd              =   2.2345328374867E-05
(PID.TID 0000.0001) %MON dynstat_wvel_del2            =   8.8664169932042E-06
(PID.TID 0000.0001) %MON dynstat_theta_max            =   2.9788674192300E+01
(PID.TID 0000.0001) %MON dynstat_theta_min            =  -1.9319422877736E+00
(PID.TID 0000.0001) %MON dynstat_theta_mean           =   3.5894453103269E+00
(PID.TID 0000.0001) %MON dynstat_theta_sd             =   4.3347431283973E+00
(PID.TID 0000.0001) %MON dynstat_theta_del2           =   1.2864731841467E-01
(PID.TID 0000.0001) %MON dynstat_salt_max             =   3.7393802008140E+01
(PID.TID 0000.0001) %MON dynstat_salt_min             =   2.9748878188412E+01
(PID.TID 0000.0001) %MON dynstat_salt_mean            =   3.4715990079430E+01
(PID.TID 0000.0001) %MON dynstat_salt_sd              =   2.9373144625318E-01
(PID.TID 0000.0001) %MON dynstat_salt_del2            =   2.3247467623483E-02
(PID.TID 0000.0001) %MON advcfl_uvel_max              =   3.0423945258737E-02
(PID.TID 0000.0001) %MON advcfl_vvel_max              =   1.7493138680462E-02
(PID.TID 0000.0001) %MON advcfl_wvel_max              =   6.6378908033283E-02
(PID.TID 0000.0001) %MON advcfl_W_hf_max              =   6.2538224506951E-02
(PID.TID 0000.0001) %MON pe_b_mean                    =   2.6545502965766E-04
(PID.TID 0000.0001) %MON ke_max                       =   2.0700850723071E-02
(PID.TID 0000.0001) %MON ke_mean                      =   2.3507143869076E-04
(PID.TID 0000.0001) %MON ke_vol                       =   1.3226782436723E+18
(PID.TID 0000.0001) %MON vort_r_min                   =  -7.8387861166306E-07
(PID.TID 0000.0001) %MON vort_r_max                   =   7.2690533492525E-07
(PID.TID 0000.0001) %MON vort_a_mean                  =  -2.5205767954124E-05
(PID.TID 0000.0001) %MON vort_a_sd                    =   7.3403516281483E-05
(PID.TID 0000.0001) %MON vort_p_mean                  =  -3.1758667743967E-05
(PID.TID 0000.0001) %MON vort_p_sd                    =   1.3126273300801E-04
(PID.TID 0000.0001) %MON surfExpan_theta_mean         =   1.2681916580029E-05
(PID.TID 0000.0001) %MON surfExpan_salt_mean          =   1.5668540486256E-08
(PID.TID 0000.0001) // =======================================================
(PID.TID 0000.0001) // End MONITOR dynamic field statistics
(PID.TID 0000.0001) // =======================================================
time,SST,SSS,fu,fv,Q,E-P,i0,i1,a,b =   3.7152E+06 -4.3250E-01  3.4441E+01 -1.5848E-02 -2.0277E-02  2.4217E+02  0.0000E+00     1     2  9.3333E-01  6.6667E-02
time,fu0,fu1,fu =   3.7152E+06 -3.5633E-02 -1.4435E-02 -1.5848E-02  9.3333E-01  6.6667E-02
 cg2d: Sum(rhs),rhsMax =  -1.03056452260830E-13  1.00214496122678E+01
(PID.TID 0000.0001)                    cg2d_init_res =    2.72436494393122E-01
(PID.TID 0000.0001)                       cg2d_iters =    24
(PID.TID 0000.0001)                         cg2d_res =    4.15419438665866E-14
(PID.TID 0000.0001) // =======================================================
(PID.TID 0000.0001) // Begin MONITOR dynamic field statistics
(PID.TID 0000.0001) // =======================================================
(PID.TID 0000.0001) %MON time_tsnumber                =                    87
(PID.TID 0000.0001) %MON time_secondsf                =   3.7584000000000E+06
(PID.TID 0000.0001) %MON dynstat_eta_max              =   1.1203248297375E+00
(PID.TID 0000.0001) %MON dynstat_eta_min              =  -1.3024667608135E+00
(PID.TID 0000.0001) %MON dynstat_eta_mean             =   1.3030299934381E-16
(PID.TID 0000.0001) %MON dynstat_eta_sd               =   4.5648805870403E-01
(PID.TID 0000.0001) %MON dynstat_eta_del2             =   1.9213479700450E-02
(PID.TID 0000.0001) %MON dynstat_uvel_max             =   2.0463684695158E-01
(PID.TID 0000.0001) %MON dynstat_uvel_min             =  -1.5656157257757E-01
(PID.TID 0000.0001) %MON dynstat_uvel_mean            =   9.8957950545708E-04
(PID.TID 0000.0001) %MON dynstat_uvel_sd              =   1.6688072338829E-02
(PID.TID 0000.0001) %MON dynstat_uvel_del2            =   4.9107449366842E-03
(PID.TID 0000.0001) %MON dynstat_vvel_max             =   1.7933785901104E-01
(PID.TID 0000.0001) %MON dynstat_vvel_min             =  -1.5018994185405E-01
(PID.TID 0000.0001) %MON dynstat_vvel_mean            =  -5.8172021690514E-04
(PID.TID 0000.0001) %MON dynstat_vvel_sd              =   1.5220486485426E-02
(PID.TID 0000.0001) %MON dynstat_vvel_del2            =   4.4790178729201E-03
(PID.TID 0000.0001) %MON dynstat_wvel_max             =   3.8765420713819E-04
(PID.TID 0000.0001) %MON dynstat_wvel_min             =  -2.2741349575102E-04
(PID.TID 0000.0001) %MON dynstat_wvel_mean            =  -3.1038790589512E-22
(PID.TID 0000.0001) %MON dynstat_wvel_sd              =   2.2240326632961E-05
(PID.TID 0000.0001) %MON dynstat_wvel_del2            =   8.8246412048716E-06
(PID.TID 0000.0001) %MON dynstat_theta_max            =   2.9792110178207E+01
(PID.TID 0000.0001) %MON dynstat_theta_min            =  -1.9321433278265E+00
(PID.TID 0000.0001) %MON dynstat_theta_mean           =   3.5893584695081E+00
(PID.TID 0000.0001) %MON dynstat_theta_sd             =   4.3345669090417E+00
(PID.TID 0000.0001) %MON dynstat_theta_del2           =   1.2866597430898E-01
(PID.TID 0000.0001) %MON dynstat_salt_max             =   3.7393568722321E+01
(PID.TID 0000.0001) %MON dynstat_salt_min             =   2.9746957931657E+01
(PID.TID 0000.0001) %MON dynstat_salt_mean            =   3.4715990912975E+01
(PID.TID 0000.0001) %MON dynstat_salt_sd              =   2.9371479656899E-01
(PID.TID 0000.0001) %MON dynstat_salt_del2            =   2.3225119608036E-02
(PID.TID 0000.0001) %MON advcfl_uvel_max              =   3.0358706905974E-02
(PID.TID 0000.0001) %MON advcfl_vvel_max              =   1.7421234886192E-02
(PID.TID 0000.0001) %MON advcfl_wvel_max              =   6.1205649842926E-02
(PID.TID 0000.0001) %MON advcfl_W_hf_max              =   6.3953318835620E-02
(PID.TID 0000.0001) %MON pe_b_mean                    =   2.6664905122626E-04
(PID.TID 0000.0001) %MON ke_max                       =   2.0373920009002E-02
(PID.TID 0000.0001) %MON ke_mean                      =   2.3112360877474E-04
(PID.TID 0000.0001) %MON ke_vol                       =   1.3226782436723E+18
(PID.TID 0000.0001) %MON vort_r_min                   =  -7.6692532515605E-07
(PID.TID 0000.0001) %MON vort_r_max                   =   7.2666228574260E-07
(PID.TID 0000.0001) %MON vort_a_mean                  =  -2.5205767977741E-05
(PID.TID 0000.0001) %MON vort_a_sd                    =   7.3403514700203E-05
(PID.TID 0000.0001) %MON vort_p_mean                  =  -3.1758667773724E-05
(PID.TID 0000.0001) %MON vort_p_sd                    =   1.3126271243643E-04
(PID.TID 0000.0001) %MON surfExpan_theta_mean         =   1.2247631360172E-05
(PID.TID 0000.0001) %MON surfExpan_salt_mean          =  -5.0555474445073E-08
(PID.TID 0000.0001) // =======================================================
(PID.TID 0000.0001) // End MONITOR dynamic field statistics
(PID.TID 0000.0001) // =======================================================
time,SST,SSS,fu,fv,Q,E-P,i0,i1,a,b =   3.7584E+06 -4.5734E-01  3.4436E+01 -1.5495E-02 -1.9617E-02  2.4175E+02  0.0000E+00     1     2  9.5000E-01  5.0000E-02
time,fu0,fu1,fu =   3.7584E+06 -3.5633E-02 -1.4435E-02 -1.5495E-02  9.5000E-01  5.0000E-02
 cg2d: Sum(rhs),rhsMax =   1.22471477403963E-13  9.68125250787616E+00
(PID.TID 0000.0001)                    cg2d_init_res =    2.84453523268791E-01
(PID.TID 0000.0001)                       cg2d_iters =    24
(PID.TID 0000.0001)                         cg2d_res =    4.07690515366661E-14
(PID.TID 0000.0001) // =======================================================
(PID.TID 0000.0001) // Begin MONITOR dynamic field statistics
(PID.TID 0000.0001) // =======================================================
(PID.TID 0000.0001) %MON time_tsnumber                =                    88
(PID.TID 0000.0001) %MON time_secondsf                =   3.8016000000000E+06
(PID.TID 0000.0001) %MON dynstat_eta_max              =   1.0819158116685E+00
(PID.TID 0000.0001) %MON dynstat_eta_min              =  -1.3140000301082E+00
(PID.TID 0000.0001) %MON dynstat_eta_mean             =   1.3473220430758E-16
(PID.TID 0000.0001) %MON dynstat_eta_sd               =   4.5741834303804E-01
(PID.TID 0000.0001) %MON dynstat_eta_del2             =   1.9173138666654E-02
(PID.TID 0000.0001) %MON dynstat_uvel_max             =   2.0051519929377E-01
(PID.TID 0000.0001) %MON dynstat_uvel_min             =  -1.5726899952123E-01
(PID.TID 0000.0001) %MON dynstat_uvel_mean            =   9.9783800511215E-04
(PID.TID 0000.0001) %MON dynstat_uvel_sd              =   1.6473844684945E-02
(PID.TID 0000.0001) %MON dynstat_uvel_del2            =   4.9071646383036E-03
(PID.TID 0000.0001) %MON dynstat_vvel_max             =   1.7836770424456E-01
(PID.TID 0000.0001) %MON dynstat_vvel_min             =  -1.5046513606408E-01
(PID.TID 0000.0001) %MON dynstat_vvel_mean            =  -4.9539927098494E-04
(PID.TID 0000.0001) %MON dynstat_vvel_sd              =   1.5184122770886E-02
(PID.TID 0000.0001) %MON dynstat_vvel_del2            =   4.4666315097463E-03
(PID.TID 0000.0001) %MON dynstat_wvel_max             =   3.8811961118096E-04
(PID.TID 0000.0001) %MON dynstat_wvel_min             =  -2.2415976881561E-04
(PID.TID 0000.0001) %MON dynstat_wvel_mean            =  -2.4930710425035E-23
(PID.TID 0000.0001) %MON dynstat_wvel_sd              =   2.2142760908207E-05
(PID.TID 0000.0001) %MON dynstat_wvel_del2            =   8.7821832469153E-06
(PID.TID 0000.0001) %MON dynstat_theta_max            =   2.9795329322862E+01
(PID.TID 0000.0001) %MON dynstat_theta_min            =  -1.9321750325136E+00
(PID.TID 0000.0001) %MON dynstat_theta_mean           =   3.5892769024394E+00
(PID.TID 0000.0001) %MON dynstat_theta_sd             =   4.3344057091130E+00
(PID.TID 0000.0001) %MON dynstat_theta_del2           =   1.2866664223960E-01
(PID.TID 0000.0001) %MON dynstat_salt_max             =   3.7393304699812E+01
(PID.TID 0000.0001) %MON dynstat_salt_min             =   2.9745044965310E+01
(PID.TID 0000.0001) %MON dynstat_salt_mean            =   3.4715992246298E+01
(PID.TID 0000.0001) %MON dynstat_salt_sd              =   2.9369799322956E-01
(PID.TID 0000.0001) %MON dynstat_salt_del2            =   2.3206480790290E-02
(PID.TID 0000.0001) %MON advcfl_uvel_max              =   3.0291731710610E-02
(PID.TID 0000.0001) %MON advcfl_vvel_max              =   1.7326992130334E-02
(PID.TID 0000.0001) %MON advcfl_wvel_max              =   5.8633486093312E-02
(PID.TID 0000.0001) %MON advcfl_W_hf_max              =   6.4638144770327E-02
(PID.TID 0000.0001) %MON pe_b_mean                    =   2.6773697540061E-04
(PID.TID 0000.0001) %MON ke_max                       =   1.9951410502443E-02
(PID.TID 0000.0001) %MON ke_mean                      =   2.2736541486399E-04
(PID.TID 0000.0001) %MON ke_vol                       =   1.3226782436723E+18
(PID.TID 0000.0001) %MON vort_r_min                   =  -7.5083728509501E-07
(PID.TID 0000.0001) %MON vort_r_max                   =   7.2539055102531E-07
(PID.TID 0000.0001) %MON vort_a_mean                  =  -2.5205768004322E-05
(PID.TID 0000.0001) %MON vort_a_sd                    =   7.3403512274345E-05
(PID.TID 0000.0001) %MON vort_p_mean                  =  -3.1758667807215E-05
(PID.TID 0000.0001) %MON vort_p_sd                    =   1.3126268702559E-04
(PID.TID 0000.0001) %MON surfExpan_theta_mean         =   1.1797590065440E-05
(PID.TID 0000.0001) %MON surfExpan_salt_mean          =  -1.0264919951065E-07
(PID.TID 0000.0001) // =======================================================
(PID.TID 0000.0001) // End MONITOR dynamic field statistics
(PID.TID 0000.0001) // =======================================================
time,SST,SSS,fu,fv,Q,E-P,i0,i1,a,b =   3.8016E+06 -4.8218E-01  3.4431E+01 -1.5141E-02 -1.8956E-02  2.4132E+02  0.0000E+00     1     2  9.6667E-01  3.3333E-02
time,fu0,fu1,fu =   3.8016E+06 -3.5633E-02 -1.4435E-02 -1.5141E-02  9.6667E-01  3.3333E-02
 cg2d: Sum(rhs),rhsMax =  -1.06664677090862E-13  9.26624533063592E+00
(PID.TID 0000.0001)                    cg2d_init_res =    3.00800840355736E-01
(PID.TID 0000.0001)                       cg2d_iters =    24
(PID.TID 0000.0001)                         cg2d_res =    3.64846931610176E-14
(PID.TID 0000.0001) // =======================================================
(PID.TID 0000.0001) // Begin MONITOR dynamic field statistics
(PID.TID 0000.0001) // =======================================================
(PID.TID 0000.0001) %MON time_tsnumber                =                    89
(PID.TID 0000.0001) %MON time_secondsf                =   3.8448000000000E+06
(PID.TID 0000.0001) %MON dynstat_eta_max              =   1.0351735654817E+00
(PID.TID 0000.0001) %MON dynstat_eta_min              =  -1.3262916905220E+00
(PID.TID 0000.0001) %MON dynstat_eta_mean             =  -6.4672657272382E-18
(PID.TID 0000.0001) %MON dynstat_eta_sd               =   4.5827642953010E-01
(PID.TID 0000.0001) %MON dynstat_eta_del2             =   1.9115645202597E-02
(PID.TID 0000.0001) %MON dynstat_uvel_max             =   1.9584670606255E-01
(PID.TID 0000.0001) %MON dynstat_uvel_min             =  -1.5777107786371E-01
(PID.TID 0000.0001) %MON dynstat_uvel_mean            =   1.0027133556173E-03
(PID.TID 0000.0001) %MON dynstat_uvel_sd              =   1.6270648730137E-02
(PID.TID 0000.0001) %MON dynstat_uvel_del2            =   4.9038351327023E-03
(PID.TID 0000.0001) %MON dynstat_vvel_max             =   1.7718250104348E-01
(PID.TID 0000.0001) %MON dynstat_vvel_min             =  -1.5070681940025E-01
(PID.TID 0000.0001) %MON dynstat_vvel_mean            =  -4.0833225407241E-04
(PID.TID 0000.0001) %MON dynstat_vvel_sd              =   1.5148254753249E-02
(PID.TID 0000.0001) %MON dynstat_vvel_del2            =   4.4545754779282E-03
(PID.TID 0000.0001) %MON dynstat_wvel_max             =   3.8845095533745E-04
(PID.TID 0000.0001) %MON dynstat_wvel_min             =  -2.2087084010049E-04
(PID.TID 0000.0001) %MON dynstat_wvel_mean            =  -3.3814166098157E-22
(PID.TID 0000.0001) %MON dynstat_wvel_sd              =   2.2049643205165E-05
(PID.TID 0000.0001) %MON dynstat_wvel_del2            =   8.7370897855917E-06
(PID.TID 0000.0001) %MON dynstat_theta_max            =   2.9798290416892E+01
(PID.TID 0000.0001) %MON dynstat_theta_min            =  -1.9322574090230E+00
(PID.TID 0000.0001) %MON dynstat_theta_mean           =   3.5892007188269E+00
(PID.TID 0000.0001) %MON dynstat_theta_sd             =   4.3342594180312E+00
(PID.TID 0000.0001) %MON dynstat_theta_del2           =   1.2867862602612E-01
(PID.TID 0000.0001) %MON dynstat_salt_max             =   3.7393012763711E+01
(PID.TID 0000.0001) %MON dynstat_salt_min             =   2.9743139001954E+01
(PID.TID 0000.0001) %MON dynstat_salt_mean            =   3.4715993922027E+01
(PID.TID 0000.0001) %MON dynstat_salt_sd              =   2.9368092790986E-01
(PID.TID 0000.0001) %MON dynstat_salt_del2            =   2.3182902154051E-02
(PID.TID 0000.0001) %MON advcfl_uvel_max              =   3.0222874068934E-02
(PID.TID 0000.0001) %MON advcfl_vvel_max              =   1.7211859143537E-02
(PID.TID 0000.0001) %MON advcfl_wvel_max              =   6.7435590820371E-02
(PID.TID 0000.0001) %MON advcfl_W_hf_max              =   6.5951878655976E-02
(PID.TID 0000.0001) %MON pe_b_mean                    =   2.6874243123951E-04
(PID.TID 0000.0001) %MON ke_max                       =   1.9441602994345E-02
(PID.TID 0000.0001) %MON ke_mean                      =   2.2382327897606E-04
(PID.TID 0000.0001) %MON ke_vol                       =   1.3226782436723E+18
(PID.TID 0000.0001) %MON vort_r_min                   =  -7.3564814382865E-07
(PID.TID 0000.0001) %MON vort_r_max                   =   7.2314597430041E-07
(PID.TID 0000.0001) %MON vort_a_mean                  =  -2.5205768033527E-05
(PID.TID 0000.0001) %MON vort_a_sd                    =   7.3403509047433E-05
(PID.TID 0000.0001) %MON vort_p_mean                  =  -3.1758667844013E-05
(PID.TID 0000.0001) %MON vort_p_sd                    =   1.3126265655433E-04
(PID.TID 0000.0001) %MON surfExpan_theta_mean         =   1.1336289979023E-05
(PID.TID 0000.0001) %MON surfExpan_salt_mean          =  -1.4077489112791E-07
(PID.TID 0000.0001) // =======================================================
(PID.TID 0000.0001) // End MONITOR dynamic field statistics
(PID.TID 0000.0001) // =======================================================
time,SST,SSS,fu,fv,Q,E-P,i0,i1,a,b =   3.8448E+06 -5.0702E-01  3.4426E+01 -1.4788E-02 -1.8296E-02  2.4090E+02  0.0000E+00     1     2  9.8333E-01  1.6667E-02
time,fu0,fu1,fu =   3.8448E+06 -3.5633E-02 -1.4435E-02 -1.4788E-02  9.8333E-01  1.6667E-02
 cg2d: Sum(rhs),rhsMax =  -2.37129760272126E-13  8.78736502091931E+00
(PID.TID 0000.0001)                    cg2d_init_res =    3.21097875807654E-01
(PID.TID 0000.0001)                       cg2d_iters =    24
(PID.TID 0000.0001)                         cg2d_res =    4.36150505519275E-14
(PID.TID 0000.0001) // =======================================================
(PID.TID 0000.0001) // Begin MONITOR dynamic field statistics
(PID.TID 0000.0001) // =======================================================
(PID.TID 0000.0001) %MON time_tsnumber                =                    90
(PID.TID 0000.0001) %MON time_secondsf                =   3.8880000000000E+06
(PID.TID 0000.0001) %MON dynstat_eta_max              =   9.8132101672928E-01
(PID.TID 0000.0001) %MON dynstat_eta_min              =  -1.3386958639644E+00
(PID.TID 0000.0001) %MON dynstat_eta_mean             =   2.2317216892856E-17
(PID.TID 0000.0001) %MON dynstat_eta_sd               =   4.5908452895403E-01
(PID.TID 0000.0001) %MON dynstat_eta_del2             =   1.9038321120476E-02
(PID.TID 0000.0001) %MON dynstat_uvel_max             =   1.9069519502813E-01
(PID.TID 0000.0001) %MON dynstat_uvel_min             =  -1.5808062551808E-01
(PID.TID 0000.0001) %MON dynstat_uvel_mean            =   1.0044449384859E-03
(PID.TID 0000.0001) %MON dynstat_uvel_sd              =   1.6080743556986E-02
(PID.TID 0000.0001) %MON dynstat_uvel_del2            =   4.8997106304096E-03
(PID.TID 0000.0001) %MON dynstat_vvel_max             =   1.7580083428617E-01
(PID.TID 0000.0001) %MON dynstat_vvel_min             =  -1.5090180085158E-01
(PID.TID 0000.0001) %MON dynstat_vvel_mean            =  -3.1998537455014E-04
(PID.TID 0000.0001) %MON dynstat_vvel_sd              =   1.5112478636900E-02
(PID.TID 0000.0001) %MON dynstat_vvel_del2            =   4.4419922844635E-03
(PID.TID 0000.0001) %MON dynstat_wvel_max             =   3.8862624992203E-04
(PID.TID 0000.0001) %MON dynstat_wvel_min             =  -2.1757764058192E-04
(PID.TID 0000.0001) %MON dynstat_wvel_mean            =  -2.2436969642303E-22
(PID.TID 0000.0001) %MON dynstat_wvel_sd              =   2.1957960548185E-05
(PID.TID 0000.0001) %MON dynstat_wvel_del2            =   8.6885055694267E-06
(PID.TID 0000.0001) %MON dynstat_theta_max            =   2.9801026903624E+01
(PID.TID 0000.0001) %MON dynstat_theta_min            =  -1.9323019917227E+00
(PID.TID 0000.0001) %MON dynstat_theta_mean           =   3.5891299509164E+00
(PID.TID 0000.0001) %MON dynstat_theta_sd             =   4.3341274436564E+00
(PID.TID 0000.0001) %MON dynstat_theta_del2           =   1.2869242265395E-01
(PID.TID 0000.0001) %MON dynstat_salt_max             =   3.7392694597384E+01
(PID.TID 0000.0001) %MON dynstat_salt_min             =   2.9741239968095E+01
(PID.TID 0000.0001) %MON dynstat_salt_mean            =   3.4715995793236E+01
(PID.TID 0000.0001) %MON dynstat_salt_sd              =   2.9366342130089E-01
(PID.TID 0000.0001) %MON dynstat_salt_del2            =   2.3159300716293E-02
(PID.TID 0000.0001) %MON advcfl_uvel_max              =   3.0151967118553E-02
(PID.TID 0000.0001) %MON advcfl_vvel_max              =   1.7077641297699E-02
(PID.TID 0000.0001) %MON advcfl_wvel_max              =   7.7547670203445E-02
(PID.TID 0000.0001) %MON advcfl_W_hf_max              =   7.5342297961331E-02
(PID.TID 0000.0001) %MON pe_b_mean                    =   2.6969103807680E-04
(PID.TID 0000.0001) %MON ke_max                       =   1.8853913889273E-02
(PID.TID 0000.0001) %MON ke_mean                      =   2.2051876469705E-04
(PID.TID 0000.0001) %MON ke_vol                       =   1.3226782436723E+18
(PID.TID 0000.0001) %MON vort_r_min                   =  -7.2136501582190E-07
(PID.TID 0000.0001) %MON vort_r_max                   =   7.2000002105182E-07
(PID.TID 0000.0001) %MON vort_a_mean                  =  -2.5205768064977E-05
(PID.TID 0000.0001) %MON vort_a_sd                    =   7.3403505079466E-05
(PID.TID 0000.0001) %MON vort_p_mean                  =  -3.1758667883639E-05
(PID.TID 0000.0001) %MON vort_p_sd                    =   1.3126262092092E-04
(PID.TID 0000.0001) %MON surfExpan_theta_mean         =   1.0866819831454E-05
(PID.TID 0000.0001) %MON surfExpan_salt_mean          =  -1.6573952789628E-07
(PID.TID 0000.0001) // =======================================================
(PID.TID 0000.0001) // End MONITOR dynamic field statistics
(PID.TID 0000.0001) // =======================================================
 S/R EXTERNAL_FIELDS_LOAD: Reading new data  3888000. 90
(PID.TID 0000.0001)  MDSREADFIELD: opening global file: trenberth_taux.bin
(PID.TID 0000.0001)  MDSREADFIELD: opening global file: trenberth_taux.bin
(PID.TID 0000.0001)  MDSREADFIELD: opening global file: trenberth_tauy.bin
(PID.TID 0000.0001)  MDSREADFIELD: opening global file: trenberth_tauy.bin
(PID.TID 0000.0001)  MDSREADFIELD: opening global file: ncep_qnet.bin
(PID.TID 0000.0001)  MDSREADFIELD: opening global file: ncep_qnet.bin
(PID.TID 0000.0001)  MDSREADFIELD: opening global file: lev_sst.bin
(PID.TID 0000.0001)  MDSREADFIELD: opening global file: lev_sst.bin
(PID.TID 0000.0001)  MDSREADFIELD: opening global file: lev_sss.bin
(PID.TID 0000.0001)  MDSREADFIELD: opening global file: lev_sss.bin
time,SST,SSS,fu,fv,Q,E-P,i0,i1,a,b =   3.8880E+06 -5.3186E-01  3.4421E+01 -1.4435E-02 -1.7636E-02  2.4048E+02  0.0000E+00     2     3  0.0000E+00  1.0000E+00
time,fu0,fu1,fu =   3.8880E+06 -1.4435E-02 -2.7199E-02 -1.4435E-02  0.0000E+00  1.0000E+00
 cg2d: Sum(rhs),rhsMax =  -1.93872695675168E-14  8.25636731610847E+00
(PID.TID 0000.0001)                    cg2d_init_res =    3.45114618088040E-01
(PID.TID 0000.0001)                       cg2d_iters =    24
(PID.TID 0000.0001)                         cg2d_res =    5.11145213808948E-14
(PID.TID 0000.0001) // =======================================================
(PID.TID 0000.0001) // Begin MONITOR dynamic field statistics
(PID.TID 0000.0001) // =======================================================
(PID.TID 0000.0001) %MON time_tsnumber                =                    91
(PID.TID 0000.0001) %MON time_secondsf                =   3.9312000000000E+06
(PID.TID 0000.0001) %MON dynstat_eta_max              =   9.2167329115821E-01
(PID.TID 0000.0001) %MON dynstat_eta_min              =  -1.3506139879800E+00
(PID.TID 0000.0001) %MON dynstat_eta_mean             =  -1.5068871997416E-16
(PID.TID 0000.0001) %MON dynstat_eta_sd               =   4.5986485873030E-01
(PID.TID 0000.0001) %MON dynstat_eta_del2             =   1.8943280857884E-02
(PID.TID 0000.0001) %MON dynstat_uvel_max             =   1.8512922770883E-01
(PID.TID 0000.0001) %MON dynstat_uvel_min             =  -1.5821292120201E-01
(PID.TID 0000.0001) %MON dynstat_uvel_mean            =   1.0033229699063E-03
(PID.TID 0000.0001) %MON dynstat_uvel_sd              =   1.5906354775675E-02
(PID.TID 0000.0001) %MON dynstat_uvel_del2            =   4.8941954472556E-03
(PID.TID 0000.0001) %MON dynstat_vvel_max             =   1.7424416239479E-01
(PID.TID 0000.0001) %MON dynstat_vvel_min             =  -1.5103678318719E-01
(PID.TID 0000.0001) %MON dynstat_vvel_mean            =  -2.2989621127987E-04
(PID.TID 0000.0001) %MON dynstat_vvel_sd              =   1.5076224175047E-02
(PID.TID 0000.0001) %MON dynstat_vvel_del2            =   4.4283750075342E-03
(PID.TID 0000.0001) %MON dynstat_wvel_max             =   3.8862168410999E-04
(PID.TID 0000.0001) %MON dynstat_wvel_min             =  -2.1430758276626E-04
(PID.TID 0000.0001) %MON dynstat_wvel_mean            =   3.7327714055347E-24
(PID.TID 0000.0001) %MON dynstat_wvel_sd              =   2.1865057380535E-05
(PID.TID 0000.0001) %MON dynstat_wvel_del2            =   8.6363597727807E-06
(PID.TID 0000.0001) %MON dynstat_theta_max            =   2.9803581051686E+01
(PID.TID 0000.0001) %MON dynstat_theta_min            =  -1.9323457375311E+00
(PID.TID 0000.0001) %MON dynstat_theta_mean           =   3.5890645201526E+00
(PID.TID 0000.0001) %MON dynstat_theta_sd             =   4.3340094217403E+00
(PID.TID 0000.0001) %MON dynstat_theta_del2           =   1.2870706637491E-01
(PID.TID 0000.0001) %MON dynstat_salt_max             =   3.7392353495964E+01
(PID.TID 0000.0001) %MON dynstat_salt_min             =   2.9739348049790E+01
(PID.TID 0000.0001) %MON dynstat_salt_mean            =   3.4715997731525E+01
(PID.TID 0000.0001) %MON dynstat_salt_sd              =   2.9364526333574E-01
(PID.TID 0000.0001) %MON dynstat_salt_del2            =   2.3134299980020E-02
(PID.TID 0000.0001) %MON advcfl_uvel_max              =   3.0078800422405E-02
(PID.TID 0000.0001) %MON advcfl_vvel_max              =   1.6926423106459E-02
(PID.TID 0000.0001) %MON advcfl_wvel_max              =   8.5892724822352E-02
(PID.TID 0000.0001) %MON advcfl_W_hf_max              =   8.2899050500787E-02
(PID.TID 0000.0001) %MON pe_b_mean                    =   2.7060863293686E-04
(PID.TID 0000.0001) %MON ke_max                       =   1.8198609327142E-02
(PID.TID 0000.0001) %MON ke_mean                      =   2.1746988682633E-04
(PID.TID 0000.0001) %MON ke_vol                       =   1.3226782436723E+18
(PID.TID 0000.0001) %MON vort_r_min                   =  -7.0797476166387E-07
(PID.TID 0000.0001) %MON vort_r_max                   =   7.1603621761529E-07
(PID.TID 0000.0001) %MON vort_a_mean                  =  -2.5205768098283E-05
(PID.TID 0000.0001) %MON vort_a_sd                    =   7.3403500446259E-05
(PID.TID 0000.0001) %MON vort_p_mean                  =  -3.1758667925604E-05
(PID.TID 0000.0001) %MON vort_p_sd                    =   1.3126258012941E-04
(PID.TID 0000.0001) %MON surfExpan_theta_mean         =   1.0397074525367E-05
(PID.TID 0000.0001) %MON surfExpan_salt_mean          =  -1.7827729203753E-07
(PID.TID 0000.0001) // =======================================================
(PID.TID 0000.0001) // End MONITOR dynamic field statistics
(PID.TID 0000.0001) // =======================================================
time,SST,SSS,fu,fv,Q,E-P,i0,i1,a,b =   3.9312E+06 -5.2606E-01  3.4424E+01 -1.4647E-02 -1.7351E-02  2.4006E+02  0.0000E+00     2     3  1.6667E-02  9.8333E-01
time,fu0,fu1,fu =   3.9312E+06 -1.4435E-02 -2.7199E-02 -1.4647E-02  1.6667E-02  9.8333E-01
 cg2d: Sum(rhs),rhsMax =  -2.62539989748234E-13  7.68566182342188E+00
(PID.TID 0000.0001)                    cg2d_init_res =    3.72769252434899E-01
(PID.TID 0000.0001)                       cg2d_iters =    24
(PID.TID 0000.0001)                         cg2d_res =    5.81322833355014E-14
(PID.TID 0000.0001) // =======================================================
(PID.TID 0000.0001) // Begin MONITOR dynamic field statistics
(PID.TID 0000.0001) // =======================================================
(PID.TID 0000.0001) %MON time_tsnumber                =                    92
(PID.TID 0000.0001) %MON time_secondsf                =   3.9744000000000E+06
(PID.TID 0000.0001) %MON dynstat_eta_max              =   8.5761807960318E-01
(PID.TID 0000.0001) %MON dynstat_eta_min              =  -1.3615346955984E+00
(PID.TID 0000.0001) %MON dynstat_eta_mean             =  -3.7262976248235E-17
(PID.TID 0000.0001) %MON dynstat_eta_sd               =   4.6063834574471E-01
(PID.TID 0000.0001) %MON dynstat_eta_del2             =   1.8829244023187E-02
(PID.TID 0000.0001) %MON dynstat_uvel_max             =   1.7928007142583E-01
(PID.TID 0000.0001) %MON dynstat_uvel_min             =  -1.5818462701422E-01
(PID.TID 0000.0001) %MON dynstat_uvel_mean            =   9.9968555388915E-04
(PID.TID 0000.0001) %MON dynstat_uvel_sd              =   1.5749720962787E-02
(PID.TID 0000.0001) %MON dynstat_uvel_del2            =   4.8867496373514E-03
(PID.TID 0000.0001) %MON dynstat_vvel_max             =   1.7254668298735E-01
(PID.TID 0000.0001) %MON dynstat_vvel_min             =  -1.5109884686498E-01
(PID.TID 0000.0001) %MON dynstat_vvel_mean            =  -1.3768524883604E-04
(PID.TID 0000.0001) %MON dynstat_vvel_sd              =   1.5038664662683E-02
(PID.TID 0000.0001) %MON dynstat_vvel_del2            =   4.4124149748603E-03
(PID.TID 0000.0001) %MON dynstat_wvel_max             =   3.8841260639340E-04
(PID.TID 0000.0001) %MON dynstat_wvel_min             =  -2.1108466302656E-04
(PID.TID 0000.0001) %MON dynstat_wvel_mean            =   2.0491678908877E-22
(PID.TID 0000.0001) %MON dynstat_wvel_sd              =   2.1768600672844E-05
(PID.TID 0000.0001) %MON dynstat_wvel_del2            =   8.5813230222126E-06
(PID.TID 0000.0001) %MON dynstat_theta_max            =   2.9805945198003E+01
(PID.TID 0000.0001) %MON dynstat_theta_min            =  -1.9322044623048E+00
(PID.TID 0000.0001) %MON dynstat_theta_mean           =   3.5890038478232E+00
(PID.TID 0000.0001) %MON dynstat_theta_sd             =   4.3339033212547E+00
(PID.TID 0000.0001) %MON dynstat_theta_del2           =   1.2870433779366E-01
(PID.TID 0000.0001) %MON dynstat_salt_max             =   3.7391992544734E+01
(PID.TID 0000.0001) %MON dynstat_salt_min             =   2.9737464243633E+01
(PID.TID 0000.0001) %MON dynstat_salt_mean            =   3.4715999621513E+01
(PID.TID 0000.0001) %MON dynstat_salt_sd              =   2.9362624686046E-01
(PID.TID 0000.0001) %MON dynstat_salt_del2            =   2.3108448185280E-02
(PID.TID 0000.0001) %MON advcfl_uvel_max              =   3.0003117998873E-02
(PID.TID 0000.0001) %MON advcfl_vvel_max              =   1.6761526594175E-02
(PID.TID 0000.0001) %MON advcfl_wvel_max              =   9.2239504639241E-02
(PID.TID 0000.0001) %MON advcfl_W_hf_max              =   8.8533337947473E-02
(PID.TID 0000.0001) %MON pe_b_mean                    =   2.7151971926975E-04
(PID.TID 0000.0001) %MON ke_max                       =   1.7497690275439E-02
(PID.TID 0000.0001) %MON ke_mean                      =   2.1469087766923E-04
(PID.TID 0000.0001) %MON ke_vol                       =   1.3226782436723E+18
(PID.TID 0000.0001) %MON vort_r_min                   =  -6.9559892198295E-07
(PID.TID 0000.0001) %MON vort_r_max                   =   7.1140517851358E-07
(PID.TID 0000.0001) %MON vort_a_mean                  =  -2.5205768132533E-05
(PID.TID 0000.0001) %MON vort_a_sd                    =   7.3403495242747E-05
(PID.TID 0000.0001) %MON vort_p_mean                  =  -3.1758667968757E-05
(PID.TID 0000.0001) %MON vort_p_sd                    =   1.3126253425118E-04
(PID.TID 0000.0001) %MON surfExpan_theta_mean         =   9.9295231836692E-06
(PID.TID 0000.0001) %MON surfExpan_salt_mean          =  -1.8027161680805E-07
(PID.TID 0000.0001) // =======================================================
(PID.TID 0000.0001) // End MONITOR dynamic field statistics
(PID.TID 0000.0001) // =======================================================
time,SST,SSS,fu,fv,Q,E-P,i0,i1,a,b =   3.9744E+06 -5.2026E-01  3.4426E+01 -1.4860E-02 -1.7067E-02  2.3964E+02  0.0000E+00     2     3  3.3333E-02  9.6667E-01
time,fu0,fu1,fu =   3.9744E+06 -1.4435E-02 -2.7199E-02 -1.4860E-02  3.3333E-02  9.6667E-01
 cg2d: Sum(rhs),rhsMax =   1.26287869051112E-15  7.08797863551749E+00
(PID.TID 0000.0001)                    cg2d_init_res =    4.04130325977729E-01
(PID.TID 0000.0001)                       cg2d_iters =    24
(PID.TID 0000.0001)                         cg2d_res =    6.51791241933290E-14
(PID.TID 0000.0001) // =======================================================
(PID.TID 0000.0001) // Begin MONITOR dynamic field statistics
(PID.TID 0000.0001) // =======================================================
(PID.TID 0000.0001) %MON time_tsnumber                =                    93
(PID.TID 0000.0001) %MON time_secondsf                =   4.0176000000000E+06
(PID.TID 0000.0001) %MON dynstat_eta_max              =   7.9057998455770E-01
(PID.TID 0000.0001) %MON dynstat_eta_min              =  -1.3710280086771E+00
(PID.TID 0000.0001) %MON dynstat_eta_mean             =  -9.1733462716888E-17
(PID.TID 0000.0001) %MON dynstat_eta_sd               =   4.6142340805700E-01
(PID.TID 0000.0001) %MON dynstat_eta_del2             =   1.8722833346464E-02
(PID.TID 0000.0001) %MON dynstat_uvel_max             =   1.7319419466433E-01
(PID.TID 0000.0001) %MON dynstat_uvel_min             =  -1.5801339624625E-01
(PID.TID 0000.0001) %MON dynstat_uvel_mean            =   9.9388910685632E-04
(PID.TID 0000.0001) %MON dynstat_uvel_sd              =   1.5612815850198E-02
(PID.TID 0000.0001) %MON dynstat_uvel_del2            =   4.8782873754899E-03
(PID.TID 0000.0001) %MON dynstat_vvel_max             =   1.7072796718894E-01
(PID.TID 0000.0001) %MON dynstat_vvel_min             =  -1.5107600660378E-01
(PID.TID 0000.0001) %MON dynstat_vvel_mean            =  -4.3116953862960E-05
(PID.TID 0000.0001) %MON dynstat_vvel_sd              =   1.4999199290195E-02
(PID.TID 0000.0001) %MON dynstat_vvel_del2            =   4.3946287656950E-03
(PID.TID 0000.0001) %MON dynstat_wvel_max             =   3.8797432668060E-04
(PID.TID 0000.0001) %MON dynstat_wvel_min             =  -2.0792967061493E-04
(PID.TID 0000.0001) %MON dynstat_wvel_mean            =  -7.7425184745213E-23
(PID.TID 0000.0001) %MON dynstat_wvel_sd              =   2.1666860337867E-05
(PID.TID 0000.0001) %MON dynstat_wvel_del2            =   8.5212602839534E-06
(PID.TID 0000.0001) %MON dynstat_theta_max            =   2.9808199435067E+01
(PID.TID 0000.0001) %MON dynstat_theta_min            =  -1.9320859299444E+00
(PID.TID 0000.0001) %MON dynstat_theta_mean           =   3.5889480024949E+00
(PID.TID 0000.0001) %MON dynstat_theta_sd             =   4.3338089417390E+00
(PID.TID 0000.0001) %MON dynstat_theta_del2           =   1.2869612815669E-01
(PID.TID 0000.0001) %MON dynstat_salt_max             =   3.7391615254605E+01
(PID.TID 0000.0001) %MON dynstat_salt_min             =   2.9735589871200E+01
(PID.TID 0000.0001) %MON dynstat_salt_mean            =   3.4716001374789E+01
(PID.TID 0000.0001) %MON dynstat_salt_sd              =   2.9360592950442E-01
(PID.TID 0000.0001) %MON dynstat_salt_del2            =   2.3084545856767E-02
(PID.TID 0000.0001) %MON advcfl_uvel_max              =   2.9924613013283E-02
(PID.TID 0000.0001) %MON advcfl_vvel_max              =   1.6584852938707E-02
(PID.TID 0000.0001) %MON advcfl_wvel_max              =   9.6534856865486E-02
(PID.TID 0000.0001) %MON advcfl_W_hf_max              =   9.2193989898830E-02
(PID.TID 0000.0001) %MON pe_b_mean                    =   2.7244600577623E-04
(PID.TID 0000.0001) %MON ke_max                       =   1.7082726994530E-02
(PID.TID 0000.0001) %MON ke_mean                      =   2.1219505963076E-04
(PID.TID 0000.0001) %MON ke_vol                       =   1.3226782436723E+18
(PID.TID 0000.0001) %MON vort_r_min                   =  -6.8434488406474E-07
(PID.TID 0000.0001) %MON vort_r_max                   =   7.0617940282080E-07
(PID.TID 0000.0001) %MON vort_a_mean                  =  -2.5205768167625E-05
(PID.TID 0000.0001) %MON vort_a_sd                    =   7.3403489566847E-05
(PID.TID 0000.0001) %MON vort_p_mean                  =  -3.1758668012973E-05
(PID.TID 0000.0001) %MON vort_p_sd                    =   1.3126248348552E-04
(PID.TID 0000.0001) %MON surfExpan_theta_mean         =   9.4682448767256E-06
(PID.TID 0000.0001) %MON surfExpan_salt_mean          =  -1.7325237108837E-07
(PID.TID 0000.0001) // =======================================================
(PID.TID 0000.0001) // End MONITOR dynamic field statistics
(PID.TID 0000.0001) // =======================================================
time,SST,SSS,fu,fv,Q,E-P,i0,i1,a,b =   4.0176E+06 -5.1446E-01  3.4429E+01 -1.5073E-02 -1.6783E-02  2.3923E+02  0.0000E+00     2     3  5.0000E-02  9.5000E-01
time,fu0,fu1,fu =   4.0176E+06 -1.4435E-02 -2.7199E-02 -1.5073E-02  5.0000E-02  9.5000E-01
 cg2d: Sum(rhs),rhsMax =   2.49952836206546E-13  6.77027605303117E+00
(PID.TID 0000.0001)                    cg2d_init_res =    4.20314733908972E-01
(PID.TID 0000.0001)                       cg2d_iters =    24
(PID.TID 0000.0001)                         cg2d_res =    6.93433265184928E-14
(PID.TID 0000.0001) // =======================================================
(PID.TID 0000.0001) // Begin MONITOR dynamic field statistics
(PID.TID 0000.0001) // =======================================================
(PID.TID 0000.0001) %MON time_tsnumber                =                    94
(PID.TID 0000.0001) %MON time_secondsf                =   4.0608000000000E+06
(PID.TID 0000.0001) %MON dynstat_eta_max              =   7.6205424229123E-01
(PID.TID 0000.0001) %MON dynstat_eta_min              =  -1.3787687011806E+00
(PID.TID 0000.0001) %MON dynstat_eta_mean             =  -3.5006362561857E-17
(PID.TID 0000.0001) %MON dynstat_eta_sd               =   4.6223508640041E-01
(PID.TID 0000.0001) %MON dynstat_eta_del2             =   1.8618845604145E-02
(PID.TID 0000.0001) %MON dynstat_uvel_max             =   1.6694452746032E-01
(PID.TID 0000.0001) %MON dynstat_uvel_min             =  -1.5771692324284E-01
(PID.TID 0000.0001) %MON dynstat_uvel_mean            =   9.8631896709256E-04
(PID.TID 0000.0001) %MON dynstat_uvel_sd              =   1.5497466730353E-02
(PID.TID 0000.0001) %MON dynstat_uvel_del2            =   4.8685140311674E-03
(PID.TID 0000.0001) %MON dynstat_vvel_max             =   1.6881301299304E-01
(PID.TID 0000.0001) %MON dynstat_vvel_min             =  -1.5095767788267E-01
(PID.TID 0000.0001) %MON dynstat_vvel_mean            =   5.3904436780672E-05
(PID.TID 0000.0001) %MON dynstat_vvel_sd              =   1.4957252337062E-02
(PID.TID 0000.0001) %MON dynstat_vvel_del2            =   4.3761771437619E-03
(PID.TID 0000.0001) %MON dynstat_wvel_max             =   3.8728263478747E-04
(PID.TID 0000.0001) %MON dynstat_wvel_min             =  -2.0486069137914E-04
(PID.TID 0000.0001) %MON dynstat_wvel_mean            =  -3.1904867742206E-22
(PID.TID 0000.0001) %MON dynstat_wvel_sd              =   2.1558816986568E-05
(PID.TID 0000.0001) %MON dynstat_wvel_del2            =   8.4566667594101E-06
(PID.TID 0000.0001) %MON dynstat_theta_max            =   2.9810405193895E+01
(PID.TID 0000.0001) %MON dynstat_theta_min            =  -1.9319237836532E+00
(PID.TID 0000.0001) %MON dynstat_theta_mean           =   3.5888968422731E+00
(PID.TID 0000.0001) %MON dynstat_theta_sd             =   4.3337269699579E+00
(PID.TID 0000.0001) %MON dynstat_theta_del2           =   1.2874901088839E-01
(PID.TID 0000.0001) %MON dynstat_salt_max             =   3.7391224650444E+01
(PID.TID 0000.0001) %MON dynstat_salt_min             =   2.9733726466374E+01
(PID.TID 0000.0001) %MON dynstat_salt_mean            =   3.4716002923684E+01
(PID.TID 0000.0001) %MON dynstat_salt_sd              =   2.9358443397285E-01
(PID.TID 0000.0001) %MON dynstat_salt_del2            =   2.3073353936250E-02
(PID.TID 0000.0001) %MON advcfl_uvel_max              =   2.9842913473199E-02
(PID.TID 0000.0001) %MON advcfl_vvel_max              =   1.6398830494661E-02
(PID.TID 0000.0001) %MON advcfl_wvel_max              =   9.8758944840851E-02
(PID.TID 0000.0001) %MON advcfl_W_hf_max              =   9.3865777665812E-02
(PID.TID 0000.0001) %MON pe_b_mean                    =   2.7340535468825E-04
(PID.TID 0000.0001) %MON ke_max                       =   1.6804338303353E-02
(PID.TID 0000.0001) %MON ke_mean                      =   2.0999425471181E-04
(PID.TID 0000.0001) %MON ke_vol                       =   1.3226782436723E+18
(PID.TID 0000.0001) %MON vort_r_min                   =  -6.7418030377719E-07
(PID.TID 0000.0001) %MON vort_r_max                   =   7.0045621333760E-07
(PID.TID 0000.0001) %MON vort_a_mean                  =  -2.5205768203312E-05
(PID.TID 0000.0001) %MON vort_a_sd                    =   7.3403483527071E-05
(PID.TID 0000.0001) %MON vort_p_mean                  =  -3.1758668057938E-05
(PID.TID 0000.0001) %MON vort_p_sd                    =   1.3126242810493E-04
(PID.TID 0000.0001) %MON surfExpan_theta_mean         =   9.0178144463046E-06
(PID.TID 0000.0001) %MON surfExpan_salt_mean          =  -1.5905261047152E-07
(PID.TID 0000.0001) // =======================================================
(PID.TID 0000.0001) // End MONITOR dynamic field statistics
(PID.TID 0000.0001) // =======================================================
time,SST,SSS,fu,fv,Q,E-P,i0,i1,a,b =   4.0608E+06 -5.0866E-01  3.4432E+01 -1.5286E-02 -1.6498E-02  2.3881E+02  0.0000E+00     2     3  6.6667E-02  9.3333E-01
time,fu0,fu1,fu =   4.0608E+06 -1.4435E-02 -2.7199E-02 -1.5286E-02  6.6667E-02  9.3333E-01
 cg2d: Sum(rhs),rhsMax =   2.38462027901676E-13  6.73808701099732E+00
(PID.TID 0000.0001)                    cg2d_init_res =    4.16725819467126E-01
(PID.TID 0000.0001)                       cg2d_iters =    24
(PID.TID 0000.0001)                         cg2d_res =    7.13640918910685E-14
(PID.TID 0000.0001) // =======================================================
(PID.TID 0000.0001) // Begin MONITOR dynamic field statistics
(PID.TID 0000.0001) // =======================================================
(PID.TID 0000.0001) %MON time_tsnumber                =                    95
(PID.TID 0000.0001) %MON time_secondsf                =   4.1040000000000E+06
(PID.TID 0000.0001) %MON dynstat_eta_max              =   7.5854580644964E-01
(PID.TID 0000.0001) %MON dynstat_eta_min              =  -1.3845415947863E+00
(PID.TID 0000.0001) %MON dynstat_eta_mean             =   1.5777230204201E-16
(PID.TID 0000.0001) %MON dynstat_eta_sd               =   4.6308446739740E-01
(PID.TID 0000.0001) %MON dynstat_eta_del2             =   1.8593134085904E-02
(PID.TID 0000.0001) %MON dynstat_uvel_max             =   1.6420561358100E-01
(PID.TID 0000.0001) %MON dynstat_uvel_min             =  -1.5731220677654E-01
(PID.TID 0000.0001) %MON dynstat_uvel_mean            =   9.7737560653856E-04
(PID.TID 0000.0001) %MON dynstat_uvel_sd              =   1.5405217110673E-02
(PID.TID 0000.0001) %MON dynstat_uvel_del2            =   4.8572434620799E-03
(PID.TID 0000.0001) %MON dynstat_vvel_max             =   1.6685093537980E-01
(PID.TID 0000.0001) %MON dynstat_vvel_min             =  -1.5073508156403E-01
(PID.TID 0000.0001) %MON dynstat_vvel_mean            =   1.5331980106599E-04
(PID.TID 0000.0001) %MON dynstat_vvel_sd              =   1.4912417721953E-02
(PID.TID 0000.0001) %MON dynstat_vvel_del2            =   4.3577855720582E-03
(PID.TID 0000.0001) %MON dynstat_wvel_max             =   3.8631504039149E-04
(PID.TID 0000.0001) %MON dynstat_wvel_min             =  -2.0189367797134E-04
(PID.TID 0000.0001) %MON dynstat_wvel_mean            =   1.2040441996303E-22
(PID.TID 0000.0001) %MON dynstat_wvel_sd              =   2.1444130425835E-05
(PID.TID 0000.0001) %MON dynstat_wvel_del2            =   8.3929980848421E-06
(PID.TID 0000.0001) %MON dynstat_theta_max            =   2.9812625388582E+01
(PID.TID 0000.0001) %MON dynstat_theta_min            =  -1.9317129276789E+00
(PID.TID 0000.0001) %MON dynstat_theta_mean           =   3.5888502253673E+00
(PID.TID 0000.0001) %MON dynstat_theta_sd             =   4.3336577588805E+00
(PID.TID 0000.0001) %MON dynstat_theta_del2           =   1.2875332811797E-01
(PID.TID 0000.0001) %MON dynstat_salt_max             =   3.7390823421713E+01
(PID.TID 0000.0001) %MON dynstat_salt_min             =   2.9731875812593E+01
(PID.TID 0000.0001) %MON dynstat_salt_mean            =   3.4716004226582E+01
(PID.TID 0000.0001) %MON dynstat_salt_sd              =   2.9356245024746E-01
(PID.TID 0000.0001) %MON dynstat_salt_del2            =   2.3047703834710E-02
(PID.TID 0000.0001) %MON advcfl_uvel_max              =   2.9757550935992E-02
(PID.TID 0000.0001) %MON advcfl_vvel_max              =   1.6208230388506E-02
(PID.TID 0000.0001) %MON advcfl_wvel_max              =   9.9039942110914E-02
(PID.TID 0000.0001) %MON advcfl_W_hf_max              =   9.3570732388755E-02
(PID.TID 0000.0001) %MON pe_b_mean                    =   2.7441107096825E-04
(PID.TID 0000.0001) %MON ke_max                       =   1.6507193245111E-02
(PID.TID 0000.0001) %MON ke_mean                      =   2.0809915762933E-04
(PID.TID 0000.0001) %MON ke_vol                       =   1.3226782436723E+18
(PID.TID 0000.0001) %MON vort_r_min                   =  -6.6509604021178E-07
(PID.TID 0000.0001) %MON vort_r_max                   =   6.9433068701186E-07
(PID.TID 0000.0001) %MON vort_a_mean                  =  -2.5205768239386E-05
(PID.TID 0000.0001) %MON vort_a_sd                    =   7.3403477238020E-05
(PID.TID 0000.0001) %MON vort_p_mean                  =  -3.1758668103390E-05
(PID.TID 0000.0001) %MON vort_p_sd                    =   1.3126236847078E-04
(PID.TID 0000.0001) %MON surfExpan_theta_mean         =   8.5794948331941E-06
(PID.TID 0000.0001) %MON surfExpan_salt_mean          =  -1.3999221026186E-07
(PID.TID 0000.0001) // =======================================================
(PID.TID 0000.0001) // End MONITOR dynamic field statistics
(PID.TID 0000.0001) // =======================================================
time,SST,SSS,fu,fv,Q,E-P,i0,i1,a,b =   4.1040E+06 -5.0286E-01  3.4434E+01 -1.5498E-02 -1.6214E-02  2.3839E+02  0.0000E+00     2     3  8.3333E-02  9.1667E-01
time,fu0,fu1,fu =   4.1040E+06 -1.4435E-02 -2.7199E-02 -1.5498E-02  8.3333E-02  9.1667E-01
 cg2d: Sum(rhs),rhsMax =   1.08732467474226E-13  6.70168354439213E+00
(PID.TID 0000.0001)                    cg2d_init_res =    4.10693217795030E-01
(PID.TID 0000.0001)                       cg2d_iters =    24
(PID.TID 0000.0001)                         cg2d_res =    7.16653740801624E-14
(PID.TID 0000.0001) // =======================================================
(PID.TID 0000.0001) // Begin MONITOR dynamic field statistics
(PID.TID 0000.0001) // =======================================================
(PID.TID 0000.0001) %MON time_tsnumber                =                    96
(PID.TID 0000.0001) %MON time_secondsf                =   4.1472000000000E+06
(PID.TID 0000.0001) %MON dynstat_eta_max              =   7.5463241192037E-01
(PID.TID 0000.0001) %MON dynstat_eta_min              =  -1.3882409406420E+00
(PID.TID 0000.0001) %MON dynstat_eta_mean             =  -7.6648363867983E-18
(PID.TID 0000.0001) %MON dynstat_eta_sd               =   4.6397844853848E-01
(PID.TID 0000.0001) %MON dynstat_eta_del2             =   1.8630324683241E-02
(PID.TID 0000.0001) %MON dynstat_uvel_max             =   1.6264508641223E-01
(PID.TID 0000.0001) %MON dynstat_uvel_min             =  -1.5681493632821E-01
(PID.TID 0000.0001) %MON dynstat_uvel_mean            =   9.6746455917170E-04
(PID.TID 0000.0001) %MON dynstat_uvel_sd              =   1.5337214201370E-02
(PID.TID 0000.0001) %MON dynstat_uvel_del2            =   4.8442141598188E-03
(PID.TID 0000.0001) %MON dynstat_vvel_max             =   1.6716089365925E-01
(PID.TID 0000.0001) %MON dynstat_vvel_min             =  -1.5040164100778E-01
(PID.TID 0000.0001) %MON dynstat_vvel_mean            =   2.5490689869889E-04
(PID.TID 0000.0001) %MON dynstat_vvel_sd              =   1.4864528255397E-02
(PID.TID 0000.0001) %MON dynstat_vvel_del2            =   4.3386050187269E-03
(PID.TID 0000.0001) %MON dynstat_wvel_max             =   3.8505175697655E-04
(PID.TID 0000.0001) %MON dynstat_wvel_min             =  -1.9904254804382E-04
(PID.TID 0000.0001) %MON dynstat_wvel_mean            =   1.7434076211809E-22
(PID.TID 0000.0001) %MON dynstat_wvel_sd              =   2.1323275210905E-05
(PID.TID 0000.0001) %MON dynstat_wvel_del2            =   8.3295756220552E-06
(PID.TID 0000.0001) %MON dynstat_theta_max            =   2.9814921512530E+01
(PID.TID 0000.0001) %MON dynstat_theta_min            =  -1.9314502181766E+00
(PID.TID 0000.0001) %MON dynstat_theta_mean           =   3.5888079224770E+00
(PID.TID 0000.0001) %MON dynstat_theta_sd             =   4.3336007361565E+00
(PID.TID 0000.0001) %MON dynstat_theta_del2           =   1.2879787664249E-01
(PID.TID 0000.0001) %MON dynstat_salt_max             =   3.7390413941171E+01
(PID.TID 0000.0001) %MON dynstat_salt_min             =   2.9730039888250E+01
(PID.TID 0000.0001) %MON dynstat_salt_mean            =   3.4716005260806E+01
(PID.TID 0000.0001) %MON dynstat_salt_sd              =   2.9353906508889E-01
(PID.TID 0000.0001) %MON dynstat_salt_del2            =   2.3027231066068E-02
(PID.TID 0000.0001) %MON advcfl_uvel_max              =   2.9667975156161E-02
(PID.TID 0000.0001) %MON advcfl_vvel_max              =   1.6238340349788E-02
(PID.TID 0000.0001) %MON advcfl_wvel_max              =   9.7361720452794E-02
(PID.TID 0000.0001) %MON advcfl_W_hf_max              =   9.1366589668322E-02
(PID.TID 0000.0001) %MON pe_b_mean                    =   2.7547159073187E-04
(PID.TID 0000.0001) %MON ke_max                       =   1.6196408979483E-02
(PID.TID 0000.0001) %MON ke_mean                      =   2.0651904388400E-04
(PID.TID 0000.0001) %MON ke_vol                       =   1.3226782436723E+18
(PID.TID 0000.0001) %MON vort_r_min                   =  -6.7303815185797E-07
(PID.TID 0000.0001) %MON vort_r_max                   =   6.8789311138173E-07
(PID.TID 0000.0001) %MON vort_a_mean                  =  -2.5205768275685E-05
(PID.TID 0000.0001) %MON vort_a_sd                    =   7.3403470816955E-05
(PID.TID 0000.0001) %MON vort_p_mean                  =  -3.1758668149126E-05
(PID.TID 0000.0001) %MON vort_p_sd                    =   1.3126230500373E-04
(PID.TID 0000.0001) %MON surfExpan_theta_mean         =   8.1557396613502E-06
(PID.TID 0000.0001) %MON surfExpan_salt_mean          =  -1.1783898914447E-07
(PID.TID 0000.0001) // =======================================================
(PID.TID 0000.0001) // End MONITOR dynamic field statistics
(PID.TID 0000.0001) // =======================================================
time,SST,SSS,fu,fv,Q,E-P,i0,i1,a,b =   4.1472E+06 -4.9706E-01  3.4437E+01 -1.5711E-02 -1.5930E-02  2.3797E+02  0.0000E+00     2     3  1.0000E-01  9.0000E-01
time,fu0,fu1,fu =   4.1472E+06 -1.4435E-02 -2.7199E-02 -1.5711E-02  1.0000E-01  9.0000E-01
 cg2d: Sum(rhs),rhsMax =   1.35613742457963E-13  6.66306739250365E+00
(PID.TID 0000.0001)                    cg2d_init_res =    4.02429510232374E-01
(PID.TID 0000.0001)                       cg2d_iters =    24
(PID.TID 0000.0001)                         cg2d_res =    7.13283556085320E-14
(PID.TID 0000.0001) // =======================================================
(PID.TID 0000.0001) // Begin MONITOR dynamic field statistics
(PID.TID 0000.0001) // =======================================================
(PID.TID 0000.0001) %MON time_tsnumber                =                    97
(PID.TID 0000.0001) %MON time_secondsf                =   4.1904000000000E+06
(PID.TID 0000.0001) %MON dynstat_eta_max              =   7.5130208122503E-01
(PID.TID 0000.0001) %MON dynstat_eta_min              =  -1.3898640292146E+00
(PID.TID 0000.0001) %MON dynstat_eta_mean             =   1.2981273907242E-17
(PID.TID 0000.0001) %MON dynstat_eta_sd               =   4.6491986354035E-01
(PID.TID 0000.0001) %MON dynstat_eta_del2             =   1.8696222978593E-02
(PID.TID 0000.0001) %MON dynstat_uvel_max             =   1.6044860638641E-01
(PID.TID 0000.0001) %MON dynstat_uvel_min             =  -1.5623899224267E-01
(PID.TID 0000.0001) %MON dynstat_uvel_mean            =   9.5698628619637E-04
(PID.TID 0000.0001) %MON dynstat_uvel_sd              =   1.5294099640935E-02
(PID.TID 0000.0001) %MON dynstat_uvel_del2            =   4.8305777558782E-03
(PID.TID 0000.0001) %MON dynstat_vvel_max             =   1.6730297461907E-01
(PID.TID 0000.0001) %MON dynstat_vvel_min             =  -1.4995319126974E-01
(PID.TID 0000.0001) %MON dynstat_vvel_mean            =   3.5828368778113E-04
(PID.TID 0000.0001) %MON dynstat_vvel_sd              =   1.4813704801885E-02
(PID.TID 0000.0001) %MON dynstat_vvel_del2            =   4.3183911392318E-03
(PID.TID 0000.0001) %MON dynstat_wvel_max             =   3.8347630210190E-04
(PID.TID 0000.0001) %MON dynstat_wvel_min             =  -1.9731892545945E-04
(PID.TID 0000.0001) %MON dynstat_wvel_mean            =   1.5029406399629E-22
(PID.TID 0000.0001) %MON dynstat_wvel_sd              =   2.1197422965028E-05
(PID.TID 0000.0001) %MON dynstat_wvel_del2            =   8.2648012887772E-06
(PID.TID 0000.0001) %MON dynstat_theta_max            =   2.9817350833092E+01
(PID.TID 0000.0001) %MON dynstat_theta_min            =  -1.9311346048093E+00
(PID.TID 0000.0001) %MON dynstat_theta_mean           =   3.5887697686037E+00
(PID.TID 0000.0001) %MON dynstat_theta_sd             =   4.3335562676807E+00
(PID.TID 0000.0001) %MON dynstat_theta_del2           =   1.2885707785447E-01
(PID.TID 0000.0001) %MON dynstat_salt_max             =   3.7389999866492E+01
(PID.TID 0000.0001) %MON dynstat_salt_min             =   2.9728220804745E+01
(PID.TID 0000.0001) %MON dynstat_salt_mean            =   3.4716006029648E+01
(PID.TID 0000.0001) %MON dynstat_salt_sd              =   2.9351494604245E-01
(PID.TID 0000.0001) %MON dynstat_salt_del2            =   2.3001632482698E-02
(PID.TID 0000.0001) %MON advcfl_uvel_max              =   2.9573532820462E-02
(PID.TID 0000.0001) %MON advcfl_vvel_max              =   1.6252142375682E-02
(PID.TID 0000.0001) %MON advcfl_wvel_max              =   9.3810001627062E-02
(PID.TID 0000.0001) %MON advcfl_W_hf_max              =   8.7345643196418E-02
(PID.TID 0000.0001) %MON pe_b_mean                    =   2.7659059176782E-04
(PID.TID 0000.0001) %MON ke_max                       =   1.5876728606906E-02
(PID.TID 0000.0001) %MON ke_mean                      =   2.0526118264420E-04
(PID.TID 0000.0001) %MON ke_vol                       =   1.3226782436723E+18
(PID.TID 0000.0001) %MON vort_r_min                   =  -6.8922628275387E-07
(PID.TID 0000.0001) %MON vort_r_max                   =   6.8122669680827E-07
(PID.TID 0000.0001) %MON vort_a_mean                  =  -2.5205768312084E-05
(PID.TID 0000.0001) %MON vort_a_sd                    =   7.3403464380538E-05
(PID.TID 0000.0001) %MON vort_p_mean                  =  -3.1758668194987E-05
(PID.TID 0000.0001) %MON vort_p_sd                    =   1.3126223818103E-04
(PID.TID 0000.0001) %MON surfExpan_theta_mean         =   7.7470997249495E-06
(PID.TID 0000.0001) %MON surfExpan_salt_mean          =  -9.4622640892706E-08
(PID.TID 0000.0001) // =======================================================
(PID.TID 0000.0001) // End MONITOR dynamic field statistics
(PID.TID 0000.0001) // =======================================================
time,SST,SSS,fu,fv,Q,E-P,i0,i1,a,b =   4.1904E+06 -4.9126E-01  3.4440E+01 -1.5924E-02 -1.5646E-02  2.3755E+02  0.0000E+00     2     3  1.1667E-01  8.8333E-01
time,fu0,fu1,fu =   4.1904E+06 -1.4435E-02 -2.7199E-02 -1.5924E-02  1.1667E-01  8.8333E-01
 cg2d: Sum(rhs),rhsMax =   2.96720981118881E-13  6.62464365808393E+00
(PID.TID 0000.0001)                    cg2d_init_res =    3.92361363146794E-01
(PID.TID 0000.0001)                       cg2d_iters =    24
(PID.TID 0000.0001)                         cg2d_res =    7.06016610887246E-14
(PID.TID 0000.0001) // =======================================================
(PID.TID 0000.0001) // Begin MONITOR dynamic field statistics
(PID.TID 0000.0001) // =======================================================
(PID.TID 0000.0001) %MON time_tsnumber                =                    98
(PID.TID 0000.0001) %MON time_secondsf                =   4.2336000000000E+06
(PID.TID 0000.0001) %MON dynstat_eta_max              =   7.7912934920928E-01
(PID.TID 0000.0001) %MON dynstat_eta_min              =  -1.3895001374631E+00
(PID.TID 0000.0001) %MON dynstat_eta_mean             =  -1.1390691115654E-16
(PID.TID 0000.0001) %MON dynstat_eta_sd               =   4.6590794072057E-01
(PID.TID 0000.0001) %MON dynstat_eta_del2             =   1.8756554065648E-02
(PID.TID 0000.0001) %MON dynstat_uvel_max             =   1.5765073611951E-01
(PID.TID 0000.0001) %MON dynstat_uvel_min             =  -1.5559606337843E-01
(PID.TID 0000.0001) %MON dynstat_uvel_mean            =   9.4632814918356E-04
(PID.TID 0000.0001) %MON dynstat_uvel_sd              =   1.5275911999521E-02
(PID.TID 0000.0001) %MON dynstat_uvel_del2            =   4.8153176572434E-03
(PID.TID 0000.0001) %MON dynstat_vvel_max             =   1.6727476260191E-01
(PID.TID 0000.0001) %MON dynstat_vvel_min             =  -1.4938817978107E-01
(PID.TID 0000.0001) %MON dynstat_vvel_mean            =   4.6291800660749E-04
(PID.TID 0000.0001) %MON dynstat_vvel_sd              =   1.4760380316893E-02
(PID.TID 0000.0001) %MON dynstat_vvel_del2            =   4.2980211826351E-03
(PID.TID 0000.0001) %MON dynstat_wvel_max             =   3.8157619535831E-04
(PID.TID 0000.0001) %MON dynstat_wvel_min             =  -1.9690816037367E-04
(PID.TID 0000.0001) %MON dynstat_wvel_mean            =   2.2543746170172E-22
(PID.TID 0000.0001) %MON dynstat_wvel_sd              =   2.1068331851630E-05
(PID.TID 0000.0001) %MON dynstat_wvel_del2            =   8.1939723818525E-06
(PID.TID 0000.0001) %MON dynstat_theta_max            =   2.9819963655327E+01
(PID.TID 0000.0001) %MON dynstat_theta_min            =  -1.9307670889130E+00
(PID.TID 0000.0001) %MON dynstat_theta_mean           =   3.5887355369648E+00
(PID.TID 0000.0001) %MON dynstat_theta_sd             =   4.3335251226003E+00
(PID.TID 0000.0001) %MON dynstat_theta_del2           =   1.2884729305143E-01
(PID.TID 0000.0001) %MON dynstat_salt_max             =   3.7389583289822E+01
(PID.TID 0000.0001) %MON dynstat_salt_min             =   2.9726420739614E+01
(PID.TID 0000.0001) %MON dynstat_salt_mean            =   3.4716006551133E+01
(PID.TID 0000.0001) %MON dynstat_salt_sd              =   2.9349012159356E-01
(PID.TID 0000.0001) %MON dynstat_salt_del2            =   2.2974754482529E-02
(PID.TID 0000.0001) %MON advcfl_uvel_max              =   2.9473487693522E-02
(PID.TID 0000.0001) %MON advcfl_vvel_max              =   1.6249401804448E-02
(PID.TID 0000.0001) %MON advcfl_wvel_max              =   8.8509107235713E-02
(PID.TID 0000.0001) %MON advcfl_W_hf_max              =   8.1633308737975E-02
(PID.TID 0000.0001) %MON pe_b_mean                    =   2.7776749679208E-04
(PID.TID 0000.0001) %MON ke_max                       =   1.5683259399365E-02
(PID.TID 0000.0001) %MON ke_mean                      =   2.0432995011652E-04
(PID.TID 0000.0001) %MON ke_vol                       =   1.3226782436723E+18
(PID.TID 0000.0001) %MON vort_r_min                   =  -7.0510623005835E-07
(PID.TID 0000.0001) %MON vort_r_max                   =   6.7440573423352E-07
(PID.TID 0000.0001) %MON vort_a_mean                  =  -2.5205768348487E-05
(PID.TID 0000.0001) %MON vort_a_sd                    =   7.3403458041923E-05
(PID.TID 0000.0001) %MON vort_p_mean                  =  -3.1758668240855E-05
(PID.TID 0000.0001) %MON vort_p_sd                    =   1.3126216852669E-04
(PID.TID 0000.0001) %MON surfExpan_theta_mean         =   7.3534598865289E-06
(PID.TID 0000.0001) %MON surfExpan_salt_mean          =  -7.2250775028462E-08
(PID.TID 0000.0001) // =======================================================
(PID.TID 0000.0001) // End MONITOR dynamic field statistics
(PID.TID 0000.0001) // =======================================================
time,SST,SSS,fu,fv,Q,E-P,i0,i1,a,b =   4.2336E+06 -4.8546E-01  3.4442E+01 -1.6137E-02 -1.5361E-02  2.3714E+02  0.0000E+00     2     3  1.3333E-01  8.6667E-01
time,fu0,fu1,fu =   4.2336E+06 -1.4435E-02 -2.7199E-02 -1.6137E-02  1.3333E-01  8.6667E-01
 cg2d: Sum(rhs),rhsMax =  -8.99974539336768E-14  6.75051692371689E+00
(PID.TID 0000.0001)                    cg2d_init_res =    3.72014813980056E-01
(PID.TID 0000.0001)                       cg2d_iters =    24
(PID.TID 0000.0001)                         cg2d_res =    6.81351211546841E-14
(PID.TID 0000.0001) // =======================================================
(PID.TID 0000.0001) // Begin MONITOR dynamic field statistics
(PID.TID 0000.0001) // =======================================================
(PID.TID 0000.0001) %MON time_tsnumber                =                    99
(PID.TID 0000.0001) %MON time_secondsf                =   4.2768000000000E+06
(PID.TID 0000.0001) %MON dynstat_eta_max              =   8.0296686927879E-01
(PID.TID 0000.0001) %MON dynstat_eta_min              =  -1.3873161804355E+00
(PID.TID 0000.0001) %MON dynstat_eta_mean             =  -4.2843617450697E-17
(PID.TID 0000.0001) %MON dynstat_eta_sd               =   4.6693902797306E-01
(PID.TID 0000.0001) %MON dynstat_eta_del2             =   1.8828487654587E-02
(PID.TID 0000.0001) %MON dynstat_uvel_max             =   1.5428999460000E-01
(PID.TID 0000.0001) %MON dynstat_uvel_min             =  -1.5489539980079E-01
(PID.TID 0000.0001) %MON dynstat_uvel_mean            =   9.3585536212314E-04
(PID.TID 0000.0001) %MON dynstat_uvel_sd              =   1.5282014606324E-02
(PID.TID 0000.0001) %MON dynstat_uvel_del2            =   4.7989071208487E-03
(PID.TID 0000.0001) %MON dynstat_vvel_max             =   1.6707365761518E-01
(PID.TID 0000.0001) %MON dynstat_vvel_min             =  -1.4870778544962E-01
(PID.TID 0000.0001) %MON dynstat_vvel_mean            =   5.6814074798982E-04
(PID.TID 0000.0001) %MON dynstat_vvel_sd              =   1.4705297854007E-02
(PID.TID 0000.0001) %MON dynstat_vvel_del2            =   4.2776172943483E-03
(PID.TID 0000.0001) %MON dynstat_wvel_max             =   3.7934337160641E-04
(PID.TID 0000.0001) %MON dynstat_wvel_min             =  -1.9636187732157E-04
(PID.TID 0000.0001) %MON dynstat_wvel_mean            =  -2.3423968505289E-22
(PID.TID 0000.0001) %MON dynstat_wvel_sd              =   2.0938109754285E-05
(PID.TID 0000.0001) %MON dynstat_wvel_del2            =   8.1189627539305E-06
(PID.TID 0000.0001) %MON dynstat_theta_max            =   2.9822800810200E+01
(PID.TID 0000.0001) %MON dynstat_theta_min            =  -1.9303399561385E+00
(PID.TID 0000.0001) %MON dynstat_theta_mean           =   3.5887050729465E+00
(PID.TID 0000.0001) %MON dynstat_theta_sd             =   4.3335069884049E+00
(PID.TID 0000.0001) %MON dynstat_theta_del2           =   1.2883212426556E-01
(PID.TID 0000.0001) %MON dynstat_salt_max             =   3.7389164840027E+01
(PID.TID 0000.0001) %MON dynstat_salt_min             =   2.9724641874440E+01
(PID.TID 0000.0001) %MON dynstat_salt_mean            =   3.4716006865938E+01
(PID.TID 0000.0001) %MON dynstat_salt_sd              =   2.9346445229081E-01
(PID.TID 0000.0001) %MON dynstat_salt_del2            =   2.2947861056022E-02
(PID.TID 0000.0001) %MON advcfl_uvel_max              =   2.9367039418440E-02
(PID.TID 0000.0001) %MON advcfl_vvel_max              =   1.6229866067656E-02
(PID.TID 0000.0001) %MON advcfl_wvel_max              =   8.1616063239181E-02
(PID.TID 0000.0001) %MON advcfl_W_hf_max              =   7.4386813956012E-02
(PID.TID 0000.0001) %MON pe_b_mean                    =   2.7899829547384E-04
(PID.TID 0000.0001) %MON ke_max                       =   1.5581506146836E-02
(PID.TID 0000.0001) %MON ke_mean                      =   2.0372576836556E-04
(PID.TID 0000.0001) %MON ke_vol                       =   1.3226782436723E+18
(PID.TID 0000.0001) %MON vort_r_min                   =  -7.2051852645317E-07
(PID.TID 0000.0001) %MON vort_r_max                   =   6.6749430405244E-07
(PID.TID 0000.0001) %MON vort_a_mean                  =  -2.5205768384827E-05
(PID.TID 0000.0001) %MON vort_a_sd                    =   7.3403451907503E-05
(PID.TID 0000.0001) %MON vort_p_mean                  =  -3.1758668286642E-05
(PID.TID 0000.0001) %MON vort_p_sd                    =   1.3126209659832E-04
(PID.TID 0000.0001) %MON surfExpan_theta_mean         =   6.9739161083861E-06
(PID.TID 0000.0001) %MON surfExpan_salt_mean          =  -5.2263647315381E-08
(PID.TID 0000.0001) // =======================================================
(PID.TID 0000.0001) // End MONITOR dynamic field statistics
(PID.TID 0000.0001) // =======================================================
time,SST,SSS,fu,fv,Q,E-P,i0,i1,a,b =   4.2768E+06 -4.7966E-01  3.4445E+01 -1.6349E-02 -1.5077E-02  2.3672E+02  0.0000E+00     2     3  1.5000E-01  8.5000E-01
time,fu0,fu1,fu =   4.2768E+06 -1.4435E-02 -2.7199E-02 -1.6349E-02  1.5000E-01  8.5000E-01
 cg2d: Sum(rhs),rhsMax =  -1.64909752520259E-13  6.91710388575867E+00
(PID.TID 0000.0001)                    cg2d_init_res =    3.50442420759617E-01
(PID.TID 0000.0001)                       cg2d_iters =    24
(PID.TID 0000.0001)                         cg2d_res =    6.56674365315282E-14
(PID.TID 0000.0001) // =======================================================
(PID.TID 0000.0001) // Begin MONITOR dynamic field statistics
(PID.TID 0000.0001) // =======================================================
(PID.TID 0000.0001) %MON time_tsnumber                =                   100
(PID.TID 0000.0001) %MON time_secondsf                =   4.3200000000000E+06
(PID.TID 0000.0001) %MON dynstat_eta_max              =   8.2237354095963E-01
(PID.TID 0000.0001) %MON dynstat_eta_min              =  -1.3835400806977E+00
(PID.TID 0000.0001) %MON dynstat_eta_mean             =  -6.4484239930816E-17
(PID.TID 0000.0001) %MON dynstat_eta_sd               =   4.6800752526170E-01
(PID.TID 0000.0001) %MON dynstat_eta_del2             =   1.8914423211910E-02
(PID.TID 0000.0001) %MON dynstat_uvel_max             =   1.5040824081221E-01
(PID.TID 0000.0001) %MON dynstat_uvel_min             =  -1.5414371808468E-01
(PID.TID 0000.0001) %MON dynstat_uvel_mean            =   9.2590388061376E-04
(PID.TID 0000.0001) %MON dynstat_uvel_sd              =   1.5311066652207E-02
(PID.TID 0000.0001) %MON dynstat_uvel_del2            =   4.7819413868360E-03
(PID.TID 0000.0001) %MON dynstat_vvel_max             =   1.6669696689479E-01
(PID.TID 0000.0001) %MON dynstat_vvel_min             =  -1.4791578332271E-01
(PID.TID 0000.0001) %MON dynstat_vvel_mean            =   6.7316959405381E-04
(PID.TID 0000.0001) %MON dynstat_vvel_sd              =   1.4649474236337E-02
(PID.TID 0000.0001) %MON dynstat_vvel_del2            =   4.2580552914593E-03
(PID.TID 0000.0001) %MON dynstat_wvel_max             =   3.7677456277792E-04
(PID.TID 0000.0001) %MON dynstat_wvel_min             =  -1.9567832176964E-04
(PID.TID 0000.0001) %MON dynstat_wvel_mean            =   2.7527735678725E-22
(PID.TID 0000.0001) %MON dynstat_wvel_sd              =   2.0809078778283E-05
(PID.TID 0000.0001) %MON dynstat_wvel_del2            =   8.0431029932362E-06
(PID.TID 0000.0001) %MON dynstat_theta_max            =   2.9825894010893E+01
(PID.TID 0000.0001) %MON dynstat_theta_min            =  -1.9298641004706E+00
(PID.TID 0000.0001) %MON dynstat_theta_mean           =   3.5886782264389E+00
(PID.TID 0000.0001) %MON dynstat_theta_sd             =   4.3335019422045E+00
(PID.TID 0000.0001) %MON dynstat_theta_del2           =   1.2880607854128E-01
(PID.TID 0000.0001) %MON dynstat_salt_max             =   3.7388745171988E+01
(PID.TID 0000.0001) %MON dynstat_salt_min             =   2.9722886340482E+01
(PID.TID 0000.0001) %MON dynstat_salt_mean            =   3.4716007026800E+01
(PID.TID 0000.0001) %MON dynstat_salt_sd              =   2.9343801163719E-01
(PID.TID 0000.0001) %MON dynstat_salt_del2            =   2.2919367981041E-02
(PID.TID 0000.0001) %MON advcfl_uvel_max              =   2.9253335822501E-02
(PID.TID 0000.0001) %MON advcfl_vvel_max              =   1.6193273584866E-02
(PID.TID 0000.0001) %MON advcfl_wvel_max              =   7.3317928921785E-02
(PID.TID 0000.0001) %MON advcfl_W_hf_max              =   6.5792483565761E-02
(PID.TID 0000.0001) %MON pe_b_mean                    =   2.8027662084790E-04
(PID.TID 0000.0001) %MON ke_max                       =   1.5468495297938E-02
(PID.TID 0000.0001) %MON ke_mean                      =   2.0344399336093E-04
(PID.TID 0000.0001) %MON ke_vol                       =   1.3226782436723E+18
(PID.TID 0000.0001) %MON vort_r_min                   =  -7.3531718183477E-07
(PID.TID 0000.0001) %MON vort_r_max                   =   6.6054554233689E-07
(PID.TID 0000.0001) %MON vort_a_mean                  =  -2.5205768421057E-05
(PID.TID 0000.0001) %MON vort_a_sd                    =   7.3403446074123E-05
(PID.TID 0000.0001) %MON vort_p_mean                  =  -3.1758668332292E-05
(PID.TID 0000.0001) %MON vort_p_sd                    =   1.3126202297306E-04
(PID.TID 0000.0001) %MON surfExpan_theta_mean         =   6.6066850926874E-06
(PID.TID 0000.0001) %MON surfExpan_salt_mean          =  -3.6092366333778E-08
(PID.TID 0000.0001) // =======================================================
(PID.TID 0000.0001) // End MONITOR dynamic field statistics
(PID.TID 0000.0001) // =======================================================
time,SST,SSS,fu,fv,Q,E-P,i0,i1,a,b =   4.3200E+06 -4.7386E-01  3.4447E+01 -1.6562E-02 -1.4793E-02  2.3630E+02  0.0000E+00     2     3  1.6667E-01  8.3333E-01
time,fu0,fu1,fu =   4.3200E+06 -1.4435E-02 -2.7199E-02 -1.6562E-02  1.6667E-01  8.3333E-01
 cg2d: Sum(rhs),rhsMax =   2.96096480667529E-13  7.04306518659657E+00
(PID.TID 0000.0001)                    cg2d_init_res =    3.32878879638291E-01
(PID.TID 0000.0001)                       cg2d_iters =    24
(PID.TID 0000.0001)                         cg2d_res =    6.40804496183473E-14
(PID.TID 0000.0001) // =======================================================
(PID.TID 0000.0001) // Begin MONITOR dynamic field statistics
(PID.TID 0000.0001) // =======================================================
(PID.TID 0000.0001) %MON time_tsnumber                =                   101
(PID.TID 0000.0001) %MON time_secondsf                =   4.3632000000000E+06
(PID.TID 0000.0001) %MON dynstat_eta_max              =   8.3706698497970E-01
(PID.TID 0000.0001) %MON dynstat_eta_min              =  -1.3784429659358E+00
(PID.TID 0000.0001) %MON dynstat_eta_mean             =   1.1477564710627E-16
(PID.TID 0000.0001) %MON dynstat_eta_sd               =   4.6910688276922E-01
(PID.TID 0000.0001) %MON dynstat_eta_del2             =   1.8980264174600E-02
(PID.TID 0000.0001) %MON dynstat_uvel_max             =   1.4848385994200E-01
(PID.TID 0000.0001) %MON dynstat_uvel_min             =  -1.5334525339929E-01
(PID.TID 0000.0001) %MON dynstat_uvel_mean            =   9.1677442190852E-04
(PID.TID 0000.0001) %MON dynstat_uvel_sd              =   1.5361038651122E-02
(PID.TID 0000.0001) %MON dynstat_uvel_del2            =   4.7645195982351E-03
(PID.TID 0000.0001) %MON dynstat_vvel_max             =   1.6614203041549E-01
(PID.TID 0000.0001) %MON dynstat_vvel_min             =  -1.4701840535606E-01
(PID.TID 0000.0001) %MON dynstat_vvel_mean            =   7.7713321518069E-04
(PID.TID 0000.0001) %MON dynstat_vvel_sd              =   1.4594138710884E-02
(PID.TID 0000.0001) %MON dynstat_vvel_del2            =   4.2409184205539E-03
(PID.TID 0000.0001) %MON dynstat_wvel_max             =   3.7387139375778E-04
(PID.TID 0000.0001) %MON dynstat_wvel_min             =  -1.9485785722686E-04
(PID.TID 0000.0001) %MON dynstat_wvel_mean            =  -3.2904113443656E-23
(PID.TID 0000.0001) %MON dynstat_wvel_sd              =   2.0683495283728E-05
(PID.TID 0000.0001) %MON dynstat_wvel_del2            =   7.9674704736127E-06
(PID.TID 0000.0001) %MON dynstat_theta_max            =   2.9829260956311E+01
(PID.TID 0000.0001) %MON dynstat_theta_min            =  -1.9293508712525E+00
(PID.TID 0000.0001) %MON dynstat_theta_mean           =   3.5886548994447E+00
(PID.TID 0000.0001) %MON dynstat_theta_sd             =   4.3335098297452E+00
(PID.TID 0000.0001) %MON dynstat_theta_del2           =   1.2877181703317E-01
(PID.TID 0000.0001) %MON dynstat_salt_max             =   3.7388324521283E+01
(PID.TID 0000.0001) %MON dynstat_salt_min             =   2.9721156175381E+01
(PID.TID 0000.0001) %MON dynstat_salt_mean            =   3.4716007097790E+01
(PID.TID 0000.0001) %MON dynstat_salt_sd              =   2.9341080230918E-01
(PID.TID 0000.0001) %MON dynstat_salt_del2            =   2.2891626493325E-02
(PID.TID 0000.0001) %MON advcfl_uvel_max              =   2.9131500908785E-02
(PID.TID 0000.0001) %MON advcfl_vvel_max              =   1.6139365955958E-02
(PID.TID 0000.0001) %MON advcfl_wvel_max              =   6.8343292219594E-02
(PID.TID 0000.0001) %MON advcfl_W_hf_max              =   6.3420073257225E-02
(PID.TID 0000.0001) %MON pe_b_mean                    =   2.8159491632445E-04
(PID.TID 0000.0001) %MON ke_max                       =   1.5407198883398E-02
(PID.TID 0000.0001) %MON ke_mean                      =   2.0347390592103E-04
(PID.TID 0000.0001) %MON ke_vol                       =   1.3226782436723E+18
(PID.TID 0000.0001) %MON vort_r_min                   =  -7.4937162788697E-07
(PID.TID 0000.0001) %MON vort_r_max                   =   6.5360144805114E-07
(PID.TID 0000.0001) %MON vort_a_mean                  =  -2.5205768457152E-05
(PID.TID 0000.0001) %MON vort_a_sd                    =   7.3403440626764E-05
(PID.TID 0000.0001) %MON vort_p_mean                  =  -3.1758668377770E-05
(PID.TID 0000.0001) %MON vort_p_sd                    =   1.3126194824947E-04
(PID.TID 0000.0001) %MON surfExpan_theta_mean         =   6.2493590486071E-06
(PID.TID 0000.0001) %MON surfExpan_salt_mean          =  -2.4929167592136E-08
(PID.TID 0000.0001) // =======================================================
(PID.TID 0000.0001) // End MONITOR dynamic field statistics
(PID.TID 0000.0001) // =======================================================
time,SST,SSS,fu,fv,Q,E-P,i0,i1,a,b =   4.3632E+06 -4.6807E-01  3.4450E+01 -1.6775E-02 -1.4508E-02  2.3588E+02  0.0000E+00     2     3  1.8333E-01  8.1667E-01
time,fu0,fu1,fu =   4.3632E+06 -1.4435E-02 -2.7199E-02 -1.6775E-02  1.8333E-01  8.1667E-01
 cg2d: Sum(rhs),rhsMax =  -7.94100896150951E-13  7.12733377496619E+00
(PID.TID 0000.0001)                    cg2d_init_res =    3.19783154023692E-01
(PID.TID 0000.0001)                       cg2d_iters =    24
(PID.TID 0000.0001)                         cg2d_res =    6.30925746143984E-14
(PID.TID 0000.0001) // =======================================================
(PID.TID 0000.0001) // Begin MONITOR dynamic field statistics
(PID.TID 0000.0001) // =======================================================
(PID.TID 0000.0001) %MON time_tsnumber                =                   102
(PID.TID 0000.0001) %MON time_secondsf                =   4.4064000000000E+06
(PID.TID 0000.0001) %MON dynstat_eta_max              =   8.4692444399786E-01
(PID.TID 0000.0001) %MON dynstat_eta_min              =  -1.3723212034521E+00
(PID.TID 0000.0001) %MON dynstat_eta_mean             =  -4.9396743501556E-17
(PID.TID 0000.0001) %MON dynstat_eta_sd               =   4.7023055199178E-01
(PID.TID 0000.0001) %MON dynstat_eta_del2             =   1.9038232466449E-02
(PID.TID 0000.0001) %MON dynstat_uvel_max             =   1.5522111278162E-01
(PID.TID 0000.0001) %MON dynstat_uvel_min             =  -1.5250194740913E-01
(PID.TID 0000.0001) %MON dynstat_uvel_mean            =   9.0872559158698E-04
(PID.TID 0000.0001) %MON dynstat_uvel_sd              =   1.5429281252661E-02
(PID.TID 0000.0001) %MON dynstat_uvel_del2            =   4.7467860495369E-03
(PID.TID 0000.0001) %MON dynstat_vvel_max             =   1.6540636310024E-01
(PID.TID 0000.0001) %MON dynstat_vvel_min             =  -1.4602398434229E-01
(PID.TID 0000.0001) %MON dynstat_vvel_mean            =   8.7909894086207E-04
(PID.TID 0000.0001) %MON dynstat_vvel_sd              =   1.4540644600289E-02
(PID.TID 0000.0001) %MON dynstat_vvel_del2            =   4.2262932179675E-03
(PID.TID 0000.0001) %MON dynstat_wvel_max             =   3.7064091669624E-04
(PID.TID 0000.0001) %MON dynstat_wvel_min             =  -1.9390283408609E-04
(PID.TID 0000.0001) %MON dynstat_wvel_mean            =   1.2550240306640E-22
(PID.TID 0000.0001) %MON dynstat_wvel_sd              =   2.0563290550934E-05
(PID.TID 0000.0001) %MON dynstat_wvel_del2            =   7.8985481984054E-06
(PID.TID 0000.0001) %MON dynstat_theta_max            =   2.9832902991719E+01
(PID.TID 0000.0001) %MON dynstat_theta_min            =  -1.9288068995202E+00
(PID.TID 0000.0001) %MON dynstat_theta_mean           =   3.5886349680588E+00
(PID.TID 0000.0001) %MON dynstat_theta_sd             =   4.3335304554483E+00
(PID.TID 0000.0001) %MON dynstat_theta_del2           =   1.2873214628396E-01
(PID.TID 0000.0001) %MON dynstat_salt_max             =   3.7387902756526E+01
(PID.TID 0000.0001) %MON dynstat_salt_min             =   2.9719453292929E+01
(PID.TID 0000.0001) %MON dynstat_salt_mean            =   3.4716007151677E+01
(PID.TID 0000.0001) %MON dynstat_salt_sd              =   2.9338279027029E-01
(PID.TID 0000.0001) %MON dynstat_salt_del2            =   2.2862797345509E-02
(PID.TID 0000.0001) %MON advcfl_uvel_max              =   2.9000678943626E-02
(PID.TID 0000.0001) %MON advcfl_vvel_max              =   1.6067901775624E-02
(PID.TID 0000.0001) %MON advcfl_wvel_max              =   6.8907849236425E-02
(PID.TID 0000.0001) %MON advcfl_W_hf_max              =   6.5483306242418E-02
(PID.TID 0000.0001) %MON pe_b_mean                    =   2.8294556163836E-04
(PID.TID 0000.0001) %MON ke_max                       =   1.5334532243388E-02
(PID.TID 0000.0001) %MON ke_mean                      =   2.0379796331607E-04
(PID.TID 0000.0001) %MON ke_vol                       =   1.3226782436723E+18
(PID.TID 0000.0001) %MON vort_r_min                   =  -7.6256816326354E-07
(PID.TID 0000.0001) %MON vort_r_max                   =   6.4669321641243E-07
(PID.TID 0000.0001) %MON vort_a_mean                  =  -2.5205768493097E-05
(PID.TID 0000.0001) %MON vort_a_sd                    =   7.3403435636233E-05
(PID.TID 0000.0001) %MON vort_p_mean                  =  -3.1758668423060E-05
(PID.TID 0000.0001) %MON vort_p_sd                    =   1.3126187301522E-04
(PID.TID 0000.0001) %MON surfExpan_theta_mean         =   5.8992516078370E-06
(PID.TID 0000.0001) %MON surfExpan_salt_mean          =  -1.9743804924939E-08
(PID.TID 0000.0001) // =======================================================
(PID.TID 0000.0001) // End MONITOR dynamic field statistics
(PID.TID 0000.0001) // =======================================================
time,SST,SSS,fu,fv,Q,E-P,i0,i1,a,b =   4.4064E+06 -4.6227E-01  3.4453E+01 -1.6988E-02 -1.4224E-02  2.3546E+02  0.0000E+00     2     3  2.0000E-01  8.0000E-01
time,fu0,fu1,fu =   4.4064E+06 -1.4435E-02 -2.7199E-02 -1.6988E-02  2.0000E-01  8.0000E-01
 cg2d: Sum(rhs),rhsMax =   5.27258792182295E-13  7.17018382643005E+00
(PID.TID 0000.0001)                    cg2d_init_res =    3.11468170747572E-01
(PID.TID 0000.0001)                       cg2d_iters =    24
(PID.TID 0000.0001)                         cg2d_res =    6.21261751105335E-14
(PID.TID 0000.0001) // =======================================================
(PID.TID 0000.0001) // Begin MONITOR dynamic field statistics
(PID.TID 0000.0001) // =======================================================
(PID.TID 0000.0001) %MON time_tsnumber                =                   103
(PID.TID 0000.0001) %MON time_secondsf                =   4.4496000000000E+06
(PID.TID 0000.0001) %MON dynstat_eta_max              =   8.5197884029439E-01
(PID.TID 0000.0001) %MON dynstat_eta_min              =  -1.3654789456677E+00
(PID.TID 0000.0001) %MON dynstat_eta_mean             =   1.4800567554759E-16
(PID.TID 0000.0001) %MON dynstat_eta_sd               =   4.7137274960788E-01
(PID.TID 0000.0001) %MON dynstat_eta_del2             =   1.9091443085636E-02
(PID.TID 0000.0001) %MON dynstat_uvel_max             =   1.6188541022095E-01
(PID.TID 0000.0001) %MON dynstat_uvel_min             =  -1.5161375330666E-01
(PID.TID 0000.0001) %MON dynstat_uvel_mean            =   9.0197210667434E-04
(PID.TID 0000.0001) %MON dynstat_uvel_sd              =   1.5512639350165E-02
(PID.TID 0000.0001) %MON dynstat_uvel_del2            =   4.7306305853730E-03
(PID.TID 0000.0001) %MON dynstat_vvel_max             =   1.6448780193983E-01
(PID.TID 0000.0001) %MON dynstat_vvel_min             =  -1.4494272909681E-01
(PID.TID 0000.0001) %MON dynstat_vvel_mean            =   9.7810763065494E-04
(PID.TID 0000.0001) %MON dynstat_vvel_sd              =   1.4490366969845E-02
(PID.TID 0000.0001) %MON dynstat_vvel_del2            =   4.2142502745112E-03
(PID.TID 0000.0001) %MON dynstat_wvel_max             =   3.6709499985478E-04
(PID.TID 0000.0001) %MON dynstat_wvel_min             =  -1.9281723477992E-04
(PID.TID 0000.0001) %MON dynstat_wvel_mean            =   2.9549804065612E-22
(PID.TID 0000.0001) %MON dynstat_wvel_sd              =   2.0449953189160E-05
(PID.TID 0000.0001) %MON dynstat_wvel_del2            =   7.8373821449977E-06
(PID.TID 0000.0001) %MON dynstat_theta_max            =   2.9836902315649E+01
(PID.TID 0000.0001) %MON dynstat_theta_min            =  -1.9282383821887E+00
(PID.TID 0000.0001) %MON dynstat_theta_mean           =   3.5886183808950E+00
(PID.TID 0000.0001) %MON dynstat_theta_sd             =   4.3335639152902E+00
(PID.TID 0000.0001) %MON dynstat_theta_del2           =   1.2867546968171E-01
(PID.TID 0000.0001) %MON dynstat_salt_max             =   3.7387479450487E+01
(PID.TID 0000.0001) %MON dynstat_salt_min             =   2.9717779464643E+01
(PID.TID 0000.0001) %MON dynstat_salt_mean            =   3.4716007267679E+01
(PID.TID 0000.0001) %MON dynstat_salt_sd              =   2.9335407452752E-01
(PID.TID 0000.0001) %MON dynstat_salt_del2            =   2.2832690942473E-02
(PID.TID 0000.0001) %MON advcfl_uvel_max              =   2.8860069867598E-02
(PID.TID 0000.0001) %MON advcfl_vvel_max              =   1.5978670924865E-02
(PID.TID 0000.0001) %MON advcfl_wvel_max              =   6.8820442450726E-02
(PID.TID 0000.0001) %MON advcfl_W_hf_max              =   6.7096140801922E-02
(PID.TID 0000.0001) %MON pe_b_mean                    =   2.8432178974194E-04
(PID.TID 0000.0001) %MON ke_max                       =   1.5249804757870E-02
(PID.TID 0000.0001) %MON ke_mean                      =   2.0439147287034E-04
(PID.TID 0000.0001) %MON ke_vol                       =   1.3226782436723E+18
(PID.TID 0000.0001) %MON vort_r_min                   =  -7.7481090352953E-07
(PID.TID 0000.0001) %MON vort_r_max                   =   6.3984206134086E-07
(PID.TID 0000.0001) %MON vort_a_mean                  =  -2.5205768528889E-05
(PID.TID 0000.0001) %MON vort_a_sd                    =   7.3403431157948E-05
(PID.TID 0000.0001) %MON vort_p_mean                  =  -3.1758668468157E-05
(PID.TID 0000.0001) %MON vort_p_sd                    =   1.3126179786741E-04
(PID.TID 0000.0001) %MON surfExpan_theta_mean         =   5.5552336294271E-06
(PID.TID 0000.0001) %MON surfExpan_salt_mean          =  -2.0839623722525E-08
(PID.TID 0000.0001) // =======================================================
(PID.TID 0000.0001) // End MONITOR dynamic field statistics
(PID.TID 0000.0001) // =======================================================
time,SST,SSS,fu,fv,Q,E-P,i0,i1,a,b =   4.4496E+06 -4.5647E-01  3.4455E+01 -1.7200E-02 -1.3940E-02  2.3505E+02  0.0000E+00     2     3  2.1667E-01  7.8333E-01
time,fu0,fu1,fu =   4.4496E+06 -1.4435E-02 -2.7199E-02 -1.7200E-02  2.1667E-01  7.8333E-01
 cg2d: Sum(rhs),rhsMax =   4.34541291838286E-13  7.17315852510041E+00
(PID.TID 0000.0001)                    cg2d_init_res =    3.07999261898447E-01
(PID.TID 0000.0001)                       cg2d_iters =    24
(PID.TID 0000.0001)                         cg2d_res =    5.77459892347074E-14
(PID.TID 0000.0001) // =======================================================
(PID.TID 0000.0001) // Begin MONITOR dynamic field statistics
(PID.TID 0000.0001) // =======================================================
(PID.TID 0000.0001) %MON time_tsnumber                =                   104
(PID.TID 0000.0001) %MON time_secondsf                =   4.4928000000000E+06
(PID.TID 0000.0001) %MON dynstat_eta_max              =   8.5241020036773E-01
(PID.TID 0000.0001) %MON dynstat_eta_min              =  -1.3729012299818E+00
(PID.TID 0000.0001) %MON dynstat_eta_mean             =  -1.4150165498259E-16
(PID.TID 0000.0001) %MON dynstat_eta_sd               =   4.7252899221425E-01
(PID.TID 0000.0001) %MON dynstat_eta_del2             =   1.9132591703687E-02
(PID.TID 0000.0001) %MON dynstat_uvel_max             =   1.6836053094192E-01
(PID.TID 0000.0001) %MON dynstat_uvel_min             =  -1.5067903545799E-01
(PID.TID 0000.0001) %MON dynstat_uvel_mean            =   8.9667903626060E-04
(PID.TID 0000.0001) %MON dynstat_uvel_sd              =   1.5607608259806E-02
(PID.TID 0000.0001) %MON dynstat_uvel_del2            =   4.7164666788004E-03
(PID.TID 0000.0001) %MON dynstat_vvel_max             =   1.6338465273309E-01
(PID.TID 0000.0001) %MON dynstat_vvel_min             =  -1.4378632320121E-01
(PID.TID 0000.0001) %MON dynstat_vvel_mean            =   1.0732036825525E-03
(PID.TID 0000.0001) %MON dynstat_vvel_sd              =   1.4444587080954E-02
(PID.TID 0000.0001) %MON dynstat_vvel_del2            =   4.2044575328502E-03
(PID.TID 0000.0001) %MON dynstat_wvel_max             =   3.6325009941505E-04
(PID.TID 0000.0001) %MON dynstat_wvel_min             =  -1.9160678567135E-04
(PID.TID 0000.0001) %MON dynstat_wvel_mean            =   4.1930521136717E-22
(PID.TID 0000.0001) %MON dynstat_wvel_sd              =   2.0344215091494E-05
(PID.TID 0000.0001) %MON dynstat_wvel_del2            =   7.7820014695286E-06
(PID.TID 0000.0001) %MON dynstat_theta_max            =   2.9841194090143E+01
(PID.TID 0000.0001) %MON dynstat_theta_min            =  -1.9276514958230E+00
(PID.TID 0000.0001) %MON dynstat_theta_mean           =   3.5886051230934E+00
(PID.TID 0000.0001) %MON dynstat_theta_sd             =   4.3336100473744E+00
(PID.TID 0000.0001) %MON dynstat_theta_del2           =   1.2861042268079E-01
(PID.TID 0000.0001) %MON dynstat_salt_max             =   3.7387053969963E+01
(PID.TID 0000.0001) %MON dynstat_salt_min             =   2.9716136313581E+01
(PID.TID 0000.0001) %MON dynstat_salt_mean            =   3.4716007520265E+01
(PID.TID 0000.0001) %MON dynstat_salt_sd              =   2.9332475718921E-01
(PID.TID 0000.0001) %MON dynstat_salt_del2            =   2.2802807760255E-02
(PID.TID 0000.0001) %MON advcfl_uvel_max              =   2.8708963473740E-02
(PID.TID 0000.0001) %MON advcfl_vvel_max              =   1.5871508825623E-02
(PID.TID 0000.0001) %MON advcfl_wvel_max              =   6.8123350390311E-02
(PID.TID 0000.0001) %MON advcfl_W_hf_max              =   6.8232887588562E-02
(PID.TID 0000.0001) %MON pe_b_mean                    =   2.8571834124424E-04
(PID.TID 0000.0001) %MON ke_max                       =   1.5152392533012E-02
(PID.TID 0000.0001) %MON ke_mean                      =   2.0522274367029E-04
(PID.TID 0000.0001) %MON ke_vol                       =   1.3226782436723E+18
(PID.TID 0000.0001) %MON vort_r_min                   =  -7.8602225544732E-07
(PID.TID 0000.0001) %MON vort_r_max                   =   6.3306044830220E-07
(PID.TID 0000.0001) %MON vort_a_mean                  =  -2.5205768564534E-05
(PID.TID 0000.0001) %MON vort_a_sd                    =   7.3403427230501E-05
(PID.TID 0000.0001) %MON vort_p_mean                  =  -3.1758668513069E-05
(PID.TID 0000.0001) %MON vort_p_sd                    =   1.3126172336415E-04
(PID.TID 0000.0001) %MON surfExpan_theta_mean         =   5.2146828991356E-06
(PID.TID 0000.0001) %MON surfExpan_salt_mean          =  -2.8644450164229E-08
(PID.TID 0000.0001) // =======================================================
(PID.TID 0000.0001) // End MONITOR dynamic field statistics
(PID.TID 0000.0001) // =======================================================
time,SST,SSS,fu,fv,Q,E-P,i0,i1,a,b =   4.4928E+06 -4.5067E-01  3.4458E+01 -1.7413E-02 -1.3655E-02  2.3463E+02  0.0000E+00     2     3  2.3333E-01  7.6667E-01
time,fu0,fu1,fu =   4.4928E+06 -1.4435E-02 -2.7199E-02 -1.7413E-02  2.3333E-01  7.6667E-01
 cg2d: Sum(rhs),rhsMax =  -1.69878000555457E-13  7.13896023407749E+00
(PID.TID 0000.0001)                    cg2d_init_res =    3.09116088411720E-01
(PID.TID 0000.0001)                       cg2d_iters =    24
(PID.TID 0000.0001)                         cg2d_res =    5.33334668850363E-14
(PID.TID 0000.0001) // =======================================================
(PID.TID 0000.0001) // Begin MONITOR dynamic field statistics
(PID.TID 0000.0001) // =======================================================
(PID.TID 0000.0001) %MON time_tsnumber                =                   105
(PID.TID 0000.0001) %MON time_secondsf                =   4.5360000000000E+06
(PID.TID 0000.0001) %MON dynstat_eta_max              =   8.4853273393337E-01
(PID.TID 0000.0001) %MON dynstat_eta_min              =  -1.3876068219029E+00
(PID.TID 0000.0001) %MON dynstat_eta_mean             =  -1.2970090956791E-17
(PID.TID 0000.0001) %MON dynstat_eta_sd               =   4.7369630749332E-01
(PID.TID 0000.0001) %MON dynstat_eta_del2             =   1.9132216669236E-02
(PID.TID 0000.0001) %MON dynstat_uvel_max             =   1.7453506253046E-01
(PID.TID 0000.0001) %MON dynstat_uvel_min             =  -1.4969497662500E-01
(PID.TID 0000.0001) %MON dynstat_uvel_mean            =   8.9296078754464E-04
(PID.TID 0000.0001) %MON dynstat_uvel_sd              =   1.5710509786575E-02
(PID.TID 0000.0001) %MON dynstat_uvel_del2            =   4.7030444113333E-03
(PID.TID 0000.0001) %MON dynstat_vvel_max             =   1.6209584293216E-01
(PID.TID 0000.0001) %MON dynstat_vvel_min             =  -1.4256748916815E-01
(PID.TID 0000.0001) %MON dynstat_vvel_mean            =   1.1634683040926E-03
(PID.TID 0000.0001) %MON dynstat_vvel_sd              =   1.4404385336863E-02
(PID.TID 0000.0001) %MON dynstat_vvel_del2            =   4.1968167125780E-03
(PID.TID 0000.0001) %MON dynstat_wvel_max             =   3.5912683186098E-04
(PID.TID 0000.0001) %MON dynstat_wvel_min             =  -1.9027851360451E-04
(PID.TID 0000.0001) %MON dynstat_wvel_mean            =   2.6989982433641E-22
(PID.TID 0000.0001) %MON dynstat_wvel_sd              =   2.0246078619963E-05
(PID.TID 0000.0001) %MON dynstat_wvel_del2            =   7.7292722847390E-06
(PID.TID 0000.0001) %MON dynstat_theta_max            =   2.9845722868940E+01
(PID.TID 0000.0001) %MON dynstat_theta_min            =  -1.9270545392870E+00
(PID.TID 0000.0001) %MON dynstat_theta_mean           =   3.5885951454959E+00
(PID.TID 0000.0001) %MON dynstat_theta_sd             =   4.3336687791156E+00
(PID.TID 0000.0001) %MON dynstat_theta_del2           =   1.2853781432770E-01
(PID.TID 0000.0001) %MON dynstat_salt_max             =   3.7386625574602E+01
(PID.TID 0000.0001) %MON dynstat_salt_min             =   2.9714525300179E+01
(PID.TID 0000.0001) %MON dynstat_salt_mean            =   3.4716007986714E+01
(PID.TID 0000.0001) %MON dynstat_salt_sd              =   2.9329485661737E-01
(PID.TID 0000.0001) %MON dynstat_salt_del2            =   2.2771992754768E-02
(PID.TID 0000.0001) %MON advcfl_uvel_max              =   2.8845027424173E-02
(PID.TID 0000.0001) %MON advcfl_vvel_max              =   1.5746311288475E-02
(PID.TID 0000.0001) %MON advcfl_wvel_max              =   6.6865260568830E-02
(PID.TID 0000.0001) %MON advcfl_W_hf_max              =   6.8865997321673E-02
(PID.TID 0000.0001) %MON pe_b_mean                    =   2.8713173746607E-04
(PID.TID 0000.0001) %MON ke_max                       =   1.5041760841924E-02
(PID.TID 0000.0001) %MON ke_mean                      =   2.0625379646318E-04
(PID.TID 0000.0001) %MON ke_vol                       =   1.3226782436723E+18
(PID.TID 0000.0001) %MON vort_r_min                   =  -7.9614297675682E-07
(PID.TID 0000.0001) %MON vort_r_max                   =   6.2635353051848E-07
(PID.TID 0000.0001) %MON vort_a_mean                  =  -2.5205768600035E-05
(PID.TID 0000.0001) %MON vort_a_sd                    =   7.3403423875406E-05
(PID.TID 0000.0001) %MON vort_p_mean                  =  -3.1758668557799E-05
(PID.TID 0000.0001) %MON vort_p_sd                    =   1.3126165004231E-04
(PID.TID 0000.0001) %MON surfExpan_theta_mean         =   4.8759441765694E-06
(PID.TID 0000.0001) %MON surfExpan_salt_mean          =  -4.3229104529043E-08
(PID.TID 0000.0001) // =======================================================
(PID.TID 0000.0001) // End MONITOR dynamic field statistics
(PID.TID 0000.0001) // =======================================================
time,SST,SSS,fu,fv,Q,E-P,i0,i1,a,b =   4.5360E+06 -4.4487E-01  3.4461E+01 -1.7626E-02 -1.3371E-02  2.3421E+02  0.0000E+00     2     3  2.5000E-01  7.5000E-01
time,fu0,fu1,fu =   4.5360E+06 -1.4435E-02 -2.7199E-02 -1.7626E-02  2.5000E-01  7.5000E-01
 cg2d: Sum(rhs),rhsMax =  -3.30291349825984E-13  7.07130404910868E+00
(PID.TID 0000.0001)                    cg2d_init_res =    3.14225860183538E-01
(PID.TID 0000.0001)                       cg2d_iters =    24
(PID.TID 0000.0001)                         cg2d_res =    6.29456822683420E-14
(PID.TID 0000.0001) // =======================================================
(PID.TID 0000.0001) // Begin MONITOR dynamic field statistics
(PID.TID 0000.0001) // =======================================================
(PID.TID 0000.0001) %MON time_tsnumber                =                   106
(PID.TID 0000.0001) %MON time_secondsf                =   4.5792000000000E+06
(PID.TID 0000.0001) %MON dynstat_eta_max              =   8.4077769912560E-01
(PID.TID 0000.0001) %MON dynstat_eta_min              =  -1.4012122237340E+00
(PID.TID 0000.0001) %MON dynstat_eta_mean             =  -2.5161380792190E-16
(PID.TID 0000.0001) %MON dynstat_eta_sd               =   4.7487313709291E-01
(PID.TID 0000.0001) %MON dynstat_eta_del2             =   1.9114304796629E-02
(PID.TID 0000.0001) %MON dynstat_uvel_max             =   1.8030450565010E-01
(PID.TID 0000.0001) %MON dynstat_uvel_min             =  -1.4865812148343E-01
(PID.TID 0000.0001) %MON dynstat_uvel_mean            =   8.9088040729618E-04
(PID.TID 0000.0001) %MON dynstat_uvel_sd              =   1.5817680803559E-02
(PID.TID 0000.0001) %MON dynstat_uvel_del2            =   4.6914392408594E-03
(PID.TID 0000.0001) %MON dynstat_vvel_max             =   1.6062100357483E-01
(PID.TID 0000.0001) %MON dynstat_vvel_min             =  -1.4129952350513E-01
(PID.TID 0000.0001) %MON dynstat_vvel_mean            =   1.2480502377417E-03
(PID.TID 0000.0001) %MON dynstat_vvel_sd              =   1.4370545416621E-02
(PID.TID 0000.0001) %MON dynstat_vvel_del2            =   4.1894269915038E-03
(PID.TID 0000.0001) %MON dynstat_wvel_max             =   3.5474952204617E-04
(PID.TID 0000.0001) %MON dynstat_wvel_min             =  -1.8884078968423E-04
(PID.TID 0000.0001) %MON dynstat_wvel_mean            =  -9.7135068493322E-23
(PID.TID 0000.0001) %MON dynstat_wvel_sd              =   2.0154842003362E-05
(PID.TID 0000.0001) %MON dynstat_wvel_del2            =   7.6816209300075E-06
(PID.TID 0000.0001) %MON dynstat_theta_max            =   2.9850424699073E+01
(PID.TID 0000.0001) %MON dynstat_theta_min            =  -1.9264550118376E+00
(PID.TID 0000.0001) %MON dynstat_theta_mean           =   3.5885884358926E+00
(PID.TID 0000.0001) %MON dynstat_theta_sd             =   4.3337398663896E+00
(PID.TID 0000.0001) %MON dynstat_theta_del2           =   1.2845458104465E-01
(PID.TID 0000.0001) %MON dynstat_salt_max             =   3.7386193538210E+01
(PID.TID 0000.0001) %MON dynstat_salt_min             =   2.9712947764891E+01
(PID.TID 0000.0001) %MON dynstat_salt_mean            =   3.4716008740046E+01
(PID.TID 0000.0001) %MON dynstat_salt_sd              =   2.9326432934306E-01
(PID.TID 0000.0001) %MON dynstat_salt_del2            =   2.2741767486108E-02
(PID.TID 0000.0001) %MON advcfl_uvel_max              =   2.9798530649230E-02
(PID.TID 0000.0001) %MON advcfl_vvel_max              =   1.5603042471700E-02
(PID.TID 0000.0001) %MON advcfl_wvel_max              =   6.5100457518495E-02
(PID.TID 0000.0001) %MON advcfl_W_hf_max              =   6.8975735103487E-02
(PID.TID 0000.0001) %MON pe_b_mean                    =   2.8856018375268E-04
(PID.TID 0000.0001) %MON ke_max                       =   1.5360201563038E-02
(PID.TID 0000.0001) %MON ke_mean                      =   2.0744161590545E-04
(PID.TID 0000.0001) %MON ke_vol                       =   1.3226782436723E+18
(PID.TID 0000.0001) %MON vort_r_min                   =  -8.0513188341711E-07
(PID.TID 0000.0001) %MON vort_r_max                   =   6.1972092001191E-07
(PID.TID 0000.0001) %MON vort_a_mean                  =  -2.5205768635391E-05
(PID.TID 0000.0001) %MON vort_a_sd                    =   7.3403421097047E-05
(PID.TID 0000.0001) %MON vort_p_mean                  =  -3.1758668602347E-05
(PID.TID 0000.0001) %MON vort_p_sd                    =   1.3126157839683E-04
(PID.TID 0000.0001) %MON surfExpan_theta_mean         =   4.5384493626252E-06
(PID.TID 0000.0001) %MON surfExpan_salt_mean          =  -6.4353785819861E-08
(PID.TID 0000.0001) // =======================================================
(PID.TID 0000.0001) // End MONITOR dynamic field statistics
(PID.TID 0000.0001) // =======================================================
time,SST,SSS,fu,fv,Q,E-P,i0,i1,a,b =   4.5792E+06 -4.3907E-01  3.4463E+01 -1.7838E-02 -1.3087E-02  2.3379E+02  0.0000E+00     2     3  2.6667E-01  7.3333E-01
time,fu0,fu1,fu =   4.5792E+06 -1.4435E-02 -2.7199E-02 -1.7838E-02  2.6667E-01  7.3333E-01
 cg2d: Sum(rhs),rhsMax =  -1.45730649769860E-13  6.97474687994402E+00
(PID.TID 0000.0001)                    cg2d_init_res =    3.22463555913955E-01
(PID.TID 0000.0001)                       cg2d_iters =    24
(PID.TID 0000.0001)                         cg2d_res =    6.48013912192802E-14
(PID.TID 0000.0001) // =======================================================
(PID.TID 0000.0001) // Begin MONITOR dynamic field statistics
(PID.TID 0000.0001) // =======================================================
(PID.TID 0000.0001) %MON time_tsnumber                =                   107
(PID.TID 0000.0001) %MON time_secondsf                =   4.6224000000000E+06
(PID.TID 0000.0001) %MON dynstat_eta_max              =   8.2967349037127E-01
(PID.TID 0000.0001) %MON dynstat_eta_min              =  -1.4133364739174E+00
(PID.TID 0000.0001) %MON dynstat_eta_mean             =  -1.3407729521457E-16
(PID.TID 0000.0001) %MON dynstat_eta_sd               =   4.7605896994214E-01
(PID.TID 0000.0001) %MON dynstat_eta_del2             =   1.9084200827714E-02
(PID.TID 0000.0001) %MON dynstat_uvel_max             =   1.8557320317229E-01
(PID.TID 0000.0001) %MON dynstat_uvel_min             =  -1.4756498878780E-01
(PID.TID 0000.0001) %MON dynstat_uvel_mean            =   8.9044860613269E-04
(PID.TID 0000.0001) %MON dynstat_uvel_sd              =   1.5925654275728E-02
(PID.TID 0000.0001) %MON dynstat_uvel_del2            =   4.6814546078668E-03
(PID.TID 0000.0001) %MON dynstat_vvel_max             =   1.6070231131111E-01
(PID.TID 0000.0001) %MON dynstat_vvel_min             =  -1.3999584081101E-01
(PID.TID 0000.0001) %MON dynstat_vvel_mean            =   1.3261924977621E-03
(PID.TID 0000.0001) %MON dynstat_vvel_sd              =   1.4343480048817E-02
(PID.TID 0000.0001) %MON dynstat_vvel_del2            =   4.1818912270313E-03
(PID.TID 0000.0001) %MON dynstat_wvel_max             =   3.5014559605545E-04
(PID.TID 0000.0001) %MON dynstat_wvel_min             =  -1.8730268711591E-04
(PID.TID 0000.0001) %MON dynstat_wvel_mean            =   6.1271372978950E-22
(PID.TID 0000.0001) %MON dynstat_wvel_sd              =   2.0069206928573E-05
(PID.TID 0000.0001) %MON dynstat_wvel_del2            =   7.6420302478919E-06
(PID.TID 0000.0001) %MON dynstat_theta_max            =   2.9855224613401E+01
(PID.TID 0000.0001) %MON dynstat_theta_min            =  -1.9260216274150E+00
(PID.TID 0000.0001) %MON dynstat_theta_mean           =   3.5885849768924E+00
(PID.TID 0000.0001) %MON dynstat_theta_sd             =   4.3338227833876E+00
(PID.TID 0000.0001) %MON dynstat_theta_del2           =   1.2835003398096E-01
(PID.TID 0000.0001) %MON dynstat_salt_max             =   3.7385757248237E+01
(PID.TID 0000.0001) %MON dynstat_salt_min             =   2.9711404917083E+01
(PID.TID 0000.0001) %MON dynstat_salt_mean            =   3.4716009846048E+01
(PID.TID 0000.0001) %MON dynstat_salt_sd              =   2.9323324545279E-01
(PID.TID 0000.0001) %MON dynstat_salt_del2            =   2.2709531673079E-02
(PID.TID 0000.0001) %MON advcfl_uvel_max              =   3.0669276746398E-02
(PID.TID 0000.0001) %MON advcfl_vvel_max              =   1.5610940866270E-02
(PID.TID 0000.0001) %MON advcfl_wvel_max              =   6.2887171885664E-02
(PID.TID 0000.0001) %MON advcfl_W_hf_max              =   6.8551449641116E-02
(PID.TID 0000.0001) %MON pe_b_mean                    =   2.9000314340613E-04
(PID.TID 0000.0001) %MON ke_max                       =   1.6394425255241E-02
(PID.TID 0000.0001) %MON ke_mean                      =   2.0873981246211E-04
(PID.TID 0000.0001) %MON ke_vol                       =   1.3226782436723E+18
(PID.TID 0000.0001) %MON vort_r_min                   =  -8.1296524283918E-07
(PID.TID 0000.0001) %MON vort_r_max                   =   6.1315865463630E-07
(PID.TID 0000.0001) %MON vort_a_mean                  =  -2.5205768670597E-05
(PID.TID 0000.0001) %MON vort_a_sd                    =   7.3403418882999E-05
(PID.TID 0000.0001) %MON vort_p_mean                  =  -3.1758668646706E-05
(PID.TID 0000.0001) %MON vort_p_sd                    =   1.3126150888448E-04
(PID.TID 0000.0001) %MON surfExpan_theta_mean         =   4.2024600582653E-06
(PID.TID 0000.0001) %MON surfExpan_salt_mean          =  -9.1614472590305E-08
(PID.TID 0000.0001) // =======================================================
(PID.TID 0000.0001) // End MONITOR dynamic field statistics
(PID.TID 0000.0001) // =======================================================
time,SST,SSS,fu,fv,Q,E-P,i0,i1,a,b =   4.6224E+06 -4.3327E-01  3.4466E+01 -1.8051E-02 -1.2803E-02  2.3337E+02  0.0000E+00     2     3  2.8333E-01  7.1667E-01
time,fu0,fu1,fu =   4.6224E+06 -1.4435E-02 -2.7199E-02 -1.8051E-02  2.8333E-01  7.1667E-01
 cg2d: Sum(rhs),rhsMax =   5.78148640073550E-14  6.85449559684016E+00
(PID.TID 0000.0001)                    cg2d_init_res =    3.32796269648978E-01
(PID.TID 0000.0001)                       cg2d_iters =    24
(PID.TID 0000.0001)                         cg2d_res =    6.62202282552738E-14
(PID.TID 0000.0001) // =======================================================
(PID.TID 0000.0001) // Begin MONITOR dynamic field statistics
(PID.TID 0000.0001) // =======================================================
(PID.TID 0000.0001) %MON time_tsnumber                =                   108
(PID.TID 0000.0001) %MON time_secondsf                =   4.6656000000000E+06
(PID.TID 0000.0001) %MON dynstat_eta_max              =   8.1582330005144E-01
(PID.TID 0000.0001) %MON dynstat_eta_min              =  -1.4240000164655E+00
(PID.TID 0000.0001) %MON dynstat_eta_mean             =   2.7524971819376E-16
(PID.TID 0000.0001) %MON dynstat_eta_sd               =   4.7725379192787E-01
(PID.TID 0000.0001) %MON dynstat_eta_del2             =   1.9039880977985E-02
(PID.TID 0000.0001) %MON dynstat_uvel_max             =   1.9025603989390E-01
(PID.TID 0000.0001) %MON dynstat_uvel_min             =  -1.4641252101820E-01
(PID.TID 0000.0001) %MON dynstat_uvel_mean            =   8.9162444334699E-04
(PID.TID 0000.0001) %MON dynstat_uvel_sd              =   1.6031319578138E-02
(PID.TID 0000.0001) %MON dynstat_uvel_del2            =   4.6725547145031E-03
(PID.TID 0000.0001) %MON dynstat_vvel_max             =   1.6242038983393E-01
(PID.TID 0000.0001) %MON dynstat_vvel_min             =  -1.3866951355215E-01
(PID.TID 0000.0001) %MON dynstat_vvel_mean            =   1.3972567945331E-03
(PID.TID 0000.0001) %MON dynstat_vvel_sd              =   1.4323186758248E-02
(PID.TID 0000.0001) %MON dynstat_vvel_del2            =   4.1758386214767E-03
(PID.TID 0000.0001) %MON dynstat_wvel_max             =   3.4534484808315E-04
(PID.TID 0000.0001) %MON dynstat_wvel_min             =  -1.8567355652888E-04
(PID.TID 0000.0001) %MON dynstat_wvel_mean            =   4.3719571442489E-22
(PID.TID 0000.0001) %MON dynstat_wvel_sd              =   1.9987437068970E-05
(PID.TID 0000.0001) %MON dynstat_wvel_del2            =   7.6071642538472E-06
(PID.TID 0000.0001) %MON dynstat_theta_max            =   2.9860039230006E+01
(PID.TID 0000.0001) %MON dynstat_theta_min            =  -1.9265663535959E+00
(PID.TID 0000.0001) %MON dynstat_theta_mean           =   3.5885847272838E+00
(PID.TID 0000.0001) %MON dynstat_theta_sd             =   4.3339169298689E+00
(PID.TID 0000.0001) %MON dynstat_theta_del2           =   1.2822654146905E-01
(PID.TID 0000.0001) %MON dynstat_salt_max             =   3.7385316104198E+01
(PID.TID 0000.0001) %MON dynstat_salt_min             =   2.9709897843722E+01
(PID.TID 0000.0001) %MON dynstat_salt_mean            =   3.4716011361683E+01
(PID.TID 0000.0001) %MON dynstat_salt_sd              =   2.9320167376230E-01
(PID.TID 0000.0001) %MON dynstat_salt_del2            =   2.2680086011678E-02
(PID.TID 0000.0001) %MON advcfl_uvel_max              =   3.1443198912520E-02
(PID.TID 0000.0001) %MON advcfl_vvel_max              =   1.5777838417429E-02
(PID.TID 0000.0001) %MON advcfl_wvel_max              =   6.0285964511145E-02
(PID.TID 0000.0001) %MON advcfl_W_hf_max              =   6.8515954833397E-02
(PID.TID 0000.0001) %MON pe_b_mean                    =   2.9146068115858E-04
(PID.TID 0000.0001) %MON ke_max                       =   1.7368062377427E-02
(PID.TID 0000.0001) %MON ke_mean                      =   2.1010058958087E-04
(PID.TID 0000.0001) %MON ke_vol                       =   1.3226782436723E+18
(PID.TID 0000.0001) %MON vort_r_min                   =  -8.1963588389827E-07
(PID.TID 0000.0001) %MON vort_r_max                   =   6.1076346419719E-07
(PID.TID 0000.0001) %MON vort_a_mean                  =  -2.5205768705527E-05
(PID.TID 0000.0001) %MON vort_a_sd                    =   7.3403417205996E-05
(PID.TID 0000.0001) %MON vort_p_mean                  =  -3.1758668690716E-05
(PID.TID 0000.0001) %MON vort_p_sd                    =   1.3126144191585E-04
(PID.TID 0000.0001) %MON surfExpan_theta_mean         =   3.8689961533966E-06
(PID.TID 0000.0001) %MON surfExpan_salt_mean          =  -1.2439913141356E-07
(PID.TID 0000.0001) // =======================================================
(PID.TID 0000.0001) // End MONITOR dynamic field statistics
(PID.TID 0000.0001) // =======================================================
time,SST,SSS,fu,fv,Q,E-P,i0,i1,a,b =   4.6656E+06 -4.2747E-01  3.4469E+01 -1.8264E-02 -1.2518E-02  2.3296E+02  0.0000E+00     2     3  3.0000E-01  7.0000E-01
time,fu0,fu1,fu =   4.6656E+06 -1.4435E-02 -2.7199E-02 -1.8264E-02  3.0000E-01  7.0000E-01
 cg2d: Sum(rhs),rhsMax =  -1.86697879378528E-13  6.77682348017633E+00
(PID.TID 0000.0001)                    cg2d_init_res =    3.41050335426061E-01
(PID.TID 0000.0001)                       cg2d_iters =    24
(PID.TID 0000.0001)                         cg2d_res =    6.64894451604356E-14
(PID.TID 0000.0001) // =======================================================
(PID.TID 0000.0001) // Begin MONITOR dynamic field statistics
(PID.TID 0000.0001) // =======================================================
(PID.TID 0000.0001) %MON time_tsnumber                =                   109
(PID.TID 0000.0001) %MON time_secondsf                =   4.7088000000000E+06
(PID.TID 0000.0001) %MON dynstat_eta_max              =   7.9988098732322E-01
(PID.TID 0000.0001) %MON dynstat_eta_min              =  -1.4332706943069E+00
(PID.TID 0000.0001) %MON dynstat_eta_mean             =  -1.0001116417229E-16
(PID.TID 0000.0001) %MON dynstat_eta_sd               =   4.7845747699242E-01
(PID.TID 0000.0001) %MON dynstat_eta_del2             =   1.8987213474891E-02
(PID.TID 0000.0001) %MON dynstat_uvel_max             =   1.9427993008453E-01
(PID.TID 0000.0001) %MON dynstat_uvel_min             =  -1.4519852799208E-01
(PID.TID 0000.0001) %MON dynstat_uvel_mean            =   8.9431680213361E-04
(PID.TID 0000.0001) %MON dynstat_uvel_sd              =   1.6132054015994E-02
(PID.TID 0000.0001) %MON dynstat_uvel_del2            =   4.6640658303590E-03
(PID.TID 0000.0001) %MON dynstat_vvel_max             =   1.6400259591039E-01
(PID.TID 0000.0001) %MON dynstat_vvel_min             =  -1.3733286396987E-01
(PID.TID 0000.0001) %MON dynstat_vvel_mean            =   1.4607410208648E-03
(PID.TID 0000.0001) %MON dynstat_vvel_sd              =   1.4309231408285E-02
(PID.TID 0000.0001) %MON dynstat_vvel_del2            =   4.1711652210982E-03
(PID.TID 0000.0001) %MON dynstat_wvel_max             =   3.4037874899550E-04
(PID.TID 0000.0001) %MON dynstat_wvel_min             =  -1.8396296890406E-04
(PID.TID 0000.0001) %MON dynstat_wvel_mean            =   3.6289678858995E-22
(PID.TID 0000.0001) %MON dynstat_wvel_sd              =   1.9907558148526E-05
(PID.TID 0000.0001) %MON dynstat_wvel_del2            =   7.5712298193139E-06
(PID.TID 0000.0001) %MON dynstat_theta_max            =   2.9864780174139E+01
(PID.TID 0000.0001) %MON dynstat_theta_min            =  -1.9266570871671E+00
(PID.TID 0000.0001) %MON dynstat_theta_mean           =   3.5885876119813E+00
(PID.TID 0000.0001) %MON dynstat_theta_sd             =   4.3340219517886E+00
(PID.TID 0000.0001) %MON dynstat_theta_del2           =   1.2812257797712E-01
(PID.TID 0000.0001) %MON dynstat_salt_max             =   3.7384869689443E+01
(PID.TID 0000.0001) %MON dynstat_salt_min             =   2.9708427512979E+01
(PID.TID 0000.0001) %MON dynstat_salt_mean            =   3.4716013333620E+01
(PID.TID 0000.0001) %MON dynstat_salt_sd              =   2.9316971110659E-01
(PID.TID 0000.0001) %MON dynstat_salt_del2            =   2.2647456219514E-02
(PID.TID 0000.0001) %MON advcfl_uvel_max              =   3.2108218429044E-02
(PID.TID 0000.0001) %MON advcfl_vvel_max              =   1.5931537049989E-02
(PID.TID 0000.0001) %MON advcfl_wvel_max              =   5.7358130686896E-02
(PID.TID 0000.0001) %MON advcfl_W_hf_max              =   6.8899386208689E-02
(PID.TID 0000.0001) %MON pe_b_mean                    =   2.9293272511582E-04
(PID.TID 0000.0001) %MON ke_max                       =   1.8264078362909E-02
(PID.TID 0000.0001) %MON ke_mean                      =   2.1147680512015E-04
(PID.TID 0000.0001) %MON ke_vol                       =   1.3226782436723E+18
(PID.TID 0000.0001) %MON vort_r_min                   =  -8.2515206106384E-07
(PID.TID 0000.0001) %MON vort_r_max                   =   6.1861981598729E-07
(PID.TID 0000.0001) %MON vort_a_mean                  =  -2.5205768740321E-05
(PID.TID 0000.0001) %MON vort_a_sd                    =   7.3403416021035E-05
(PID.TID 0000.0001) %MON vort_p_mean                  =  -3.1758668734557E-05
(PID.TID 0000.0001) %MON vort_p_sd                    =   1.3126137783626E-04
(PID.TID 0000.0001) %MON surfExpan_theta_mean         =   3.5409068030768E-06
(PID.TID 0000.0001) %MON surfExpan_salt_mean          =  -1.6185688979922E-07
(PID.TID 0000.0001) // =======================================================
(PID.TID 0000.0001) // End MONITOR dynamic field statistics
(PID.TID 0000.0001) // =======================================================
time,SST,SSS,fu,fv,Q,E-P,i0,i1,a,b =   4.7088E+06 -4.2167E-01  3.4471E+01 -1.8477E-02 -1.2234E-02  2.3254E+02  0.0000E+00     2     3  3.1667E-01  6.8333E-01
time,fu0,fu1,fu =   4.7088E+06 -1.4435E-02 -2.7199E-02 -1.8477E-02  3.1667E-01  6.8333E-01
 cg2d: Sum(rhs),rhsMax =  -7.72104602475565E-13  6.84684497690714E+00
(PID.TID 0000.0001)                    cg2d_init_res =    3.40802682410430E-01
(PID.TID 0000.0001)                       cg2d_iters =    24
(PID.TID 0000.0001)                         cg2d_res =    6.42778681679902E-14
(PID.TID 0000.0001) // =======================================================
(PID.TID 0000.0001) // Begin MONITOR dynamic field statistics
(PID.TID 0000.0001) // =======================================================
(PID.TID 0000.0001) %MON time_tsnumber                =                   110
(PID.TID 0000.0001) %MON time_secondsf                =   4.7520000000000E+06
(PID.TID 0000.0001) %MON dynstat_eta_max              =   7.8252619563963E-01
(PID.TID 0000.0001) %MON dynstat_eta_min              =  -1.4412549557521E+00
(PID.TID 0000.0001) %MON dynstat_eta_mean             =   2.4887130764818E-16
(PID.TID 0000.0001) %MON dynstat_eta_sd               =   4.7966917549855E-01
(PID.TID 0000.0001) %MON dynstat_eta_del2             =   1.8946833304165E-02
(PID.TID 0000.0001) %MON dynstat_uvel_max             =   1.9758504149888E-01
(PID.TID 0000.0001) %MON dynstat_uvel_min             =  -1.4392204381474E-01
(PID.TID 0000.0001) %MON dynstat_uvel_mean            =   8.9838613143844E-04
(PID.TID 0000.0001) %MON dynstat_uvel_sd              =   1.6225802512662E-02
(PID.TID 0000.0001) %MON dynstat_uvel_del2            =   4.6554658362725E-03
(PID.TID 0000.0001) %MON dynstat_vvel_max             =   1.6544439745838E-01
(PID.TID 0000.0001) %MON dynstat_vvel_min             =  -1.3847259325956E-01
(PID.TID 0000.0001) %MON dynstat_vvel_mean            =   1.5162935016773E-03
(PID.TID 0000.0001) %MON dynstat_vvel_sd              =   1.4300775280915E-02
(PID.TID 0000.0001) %MON dynstat_vvel_del2            =   4.1657965348197E-03
(PID.TID 0000.0001) %MON dynstat_wvel_max             =   3.3527967083859E-04
(PID.TID 0000.0001) %MON dynstat_wvel_min             =  -1.8218023983154E-04
(PID.TID 0000.0001) %MON dynstat_wvel_mean            =  -1.2913917650587E-22
(PID.TID 0000.0001) %MON dynstat_wvel_sd              =   1.9827603218080E-05
(PID.TID 0000.0001) %MON dynstat_wvel_del2            =   7.5351410241227E-06
(PID.TID 0000.0001) %MON dynstat_theta_max            =   2.9869356250720E+01
(PID.TID 0000.0001) %MON dynstat_theta_min            =  -1.9268479927191E+00
(PID.TID 0000.0001) %MON dynstat_theta_mean           =   3.5885935381247E+00
(PID.TID 0000.0001) %MON dynstat_theta_sd             =   4.3341368939776E+00
(PID.TID 0000.0001) %MON dynstat_theta_del2           =   1.2801046040660E-01
(PID.TID 0000.0001) %MON dynstat_salt_max             =   3.7384418234450E+01
(PID.TID 0000.0001) %MON dynstat_salt_min             =   2.9706994768164E+01
(PID.TID 0000.0001) %MON dynstat_salt_mean            =   3.4716015798427E+01
(PID.TID 0000.0001) %MON dynstat_salt_sd              =   2.9313752494554E-01
(PID.TID 0000.0001) %MON dynstat_salt_del2            =   2.2615760513865E-02
(PID.TID 0000.0001) %MON advcfl_uvel_max              =   3.2654446951867E-02
(PID.TID 0000.0001) %MON advcfl_vvel_max              =   1.6071596508519E-02
(PID.TID 0000.0001) %MON advcfl_wvel_max              =   5.4164176056852E-02
(PID.TID 0000.0001) %MON advcfl_W_hf_max              =   6.8778600722003E-02
(PID.TID 0000.0001) %MON pe_b_mean                    =   2.9441831418027E-04
(PID.TID 0000.0001) %MON ke_max                       =   1.9066919196284E-02
(PID.TID 0000.0001) %MON ke_mean                      =   2.1282391868199E-04
(PID.TID 0000.0001) %MON ke_vol                       =   1.3226782436723E+18
(PID.TID 0000.0001) %MON vort_r_min                   =  -8.2953612089569E-07
(PID.TID 0000.0001) %MON vort_r_max                   =   6.2469677503219E-07
(PID.TID 0000.0001) %MON vort_a_mean                  =  -2.5205768774873E-05
(PID.TID 0000.0001) %MON vort_a_sd                    =   7.3403415272141E-05
(PID.TID 0000.0001) %MON vort_p_mean                  =  -3.1758668778091E-05
(PID.TID 0000.0001) %MON vort_p_sd                    =   1.3126131694719E-04
(PID.TID 0000.0001) %MON surfExpan_theta_mean         =   3.2214059947953E-06
(PID.TID 0000.0001) %MON surfExpan_salt_mean          =  -2.0312374799630E-07
(PID.TID 0000.0001) // =======================================================
(PID.TID 0000.0001) // End MONITOR dynamic field statistics
(PID.TID 0000.0001) // =======================================================
time,SST,SSS,fu,fv,Q,E-P,i0,i1,a,b =   4.7520E+06 -4.1587E-01  3.4474E+01 -1.8689E-02 -1.1950E-02  2.3212E+02  0.0000E+00     2     3  3.3333E-01  6.6667E-01
time,fu0,fu1,fu =   4.7520E+06 -1.4435E-02 -2.7199E-02 -1.8689E-02  3.3333E-01  6.6667E-01
 cg2d: Sum(rhs),rhsMax =   8.43991543320044E-13  6.91737133756921E+00
(PID.TID 0000.0001)                    cg2d_init_res =    3.38750079857009E-01
(PID.TID 0000.0001)                       cg2d_iters =    24
(PID.TID 0000.0001)                         cg2d_res =    6.11523201725852E-14
(PID.TID 0000.0001) // =======================================================
(PID.TID 0000.0001) // Begin MONITOR dynamic field statistics
(PID.TID 0000.0001) // =======================================================
(PID.TID 0000.0001) %MON time_tsnumber                =                   111
(PID.TID 0000.0001) %MON time_secondsf                =   4.7952000000000E+06
(PID.TID 0000.0001) %MON dynstat_eta_max              =   7.8611055186350E-01
(PID.TID 0000.0001) %MON dynstat_eta_min              =  -1.4480886376235E+00
(PID.TID 0000.0001) %MON dynstat_eta_mean             =  -2.3807520367837E-17
(PID.TID 0000.0001) %MON dynstat_eta_sd               =   4.8088687943106E-01
(PID.TID 0000.0001) %MON dynstat_eta_del2             =   1.8916162394238E-02
(PID.TID 0000.0001) %MON dynstat_uvel_max             =   2.0012571421511E-01
(PID.TID 0000.0001) %MON dynstat_uvel_min             =  -1.4258359855643E-01
(PID.TID 0000.0001) %MON dynstat_uvel_mean            =   9.0364670032025E-04
(PID.TID 0000.0001) %MON dynstat_uvel_sd              =   1.6311129249751E-02
(PID.TID 0000.0001) %MON dynstat_uvel_del2            =   4.6457047991719E-03
(PID.TID 0000.0001) %MON dynstat_vvel_max             =   1.6674204753324E-01
(PID.TID 0000.0001) %MON dynstat_vvel_min             =  -1.3988710535475E-01
(PID.TID 0000.0001) %MON dynstat_vvel_mean            =   1.5637179081771E-03
(PID.TID 0000.0001) %MON dynstat_vvel_sd              =   1.4296619031942E-02
(PID.TID 0000.0001) %MON dynstat_vvel_del2            =   4.1604889764679E-03
(PID.TID 0000.0001) %MON dynstat_wvel_max             =   3.3008014560697E-04
(PID.TID 0000.0001) %MON dynstat_wvel_min             =  -1.8033435352101E-04
(PID.TID 0000.0001) %MON dynstat_wvel_mean            =   1.5263791400392E-22
(PID.TID 0000.0001) %MON dynstat_wvel_sd              =   1.9745817875866E-05
(PID.TID 0000.0001) %MON dynstat_wvel_del2            =   7.4990297128998E-06
(PID.TID 0000.0001) %MON dynstat_theta_max            =   2.9873675801091E+01
(PID.TID 0000.0001) %MON dynstat_theta_min            =  -1.9269929404628E+00
(PID.TID 0000.0001) %MON dynstat_theta_mean           =   3.5886023309293E+00
(PID.TID 0000.0001) %MON dynstat_theta_sd             =   4.3342606680826E+00
(PID.TID 0000.0001) %MON dynstat_theta_del2           =   1.2789411731546E-01
(PID.TID 0000.0001) %MON dynstat_salt_max             =   3.7383962223023E+01
(PID.TID 0000.0001) %MON dynstat_salt_min             =   2.9705600302739E+01
(PID.TID 0000.0001) %MON dynstat_salt_mean            =   3.4716018779001E+01
(PID.TID 0000.0001) %MON dynstat_salt_sd              =   2.9310508801403E-01
(PID.TID 0000.0001) %MON dynstat_salt_del2            =   2.2584160126379E-02
(PID.TID 0000.0001) %MON advcfl_uvel_max              =   3.3074338365735E-02
(PID.TID 0000.0001) %MON advcfl_vvel_max              =   1.6197652807388E-02
(PID.TID 0000.0001) %MON advcfl_wvel_max              =   5.0762410590673E-02
(PID.TID 0000.0001) %MON advcfl_W_hf_max              =   6.8159793442869E-02
(PID.TID 0000.0001) %MON pe_b_mean                    =   2.9591505162123E-04
(PID.TID 0000.0001) %MON ke_max                       =   1.9762897655016E-02
(PID.TID 0000.0001) %MON ke_mean                      =   2.1410174271373E-04
(PID.TID 0000.0001) %MON ke_vol                       =   1.3226782436723E+18
(PID.TID 0000.0001) %MON vort_r_min                   =  -8.3282302428921E-07
(PID.TID 0000.0001) %MON vort_r_max                   =   6.2894041646997E-07
(PID.TID 0000.0001) %MON vort_a_mean                  =  -2.5205768809052E-05
(PID.TID 0000.0001) %MON vort_a_sd                    =   7.3403414891623E-05
(PID.TID 0000.0001) %MON vort_p_mean                  =  -3.1758668821156E-05
(PID.TID 0000.0001) %MON vort_p_sd                    =   1.3126125948063E-04
(PID.TID 0000.0001) %MON surfExpan_theta_mean         =   2.9151122946591E-06
(PID.TID 0000.0001) %MON surfExpan_salt_mean          =  -2.4716208632809E-07
(PID.TID 0000.0001) // =======================================================
(PID.TID 0000.0001) // End MONITOR dynamic field statistics
(PID.TID 0000.0001) // =======================================================
time,SST,SSS,fu,fv,Q,E-P,i0,i1,a,b =   4.7952E+06 -4.1007E-01  3.4476E+01 -1.8902E-02 -1.1665E-02  2.3170E+02  0.0000E+00     2     3  3.5000E-01  6.5000E-01
time,fu0,fu1,fu =   4.7952E+06 -1.4435E-02 -2.7199E-02 -1.8902E-02  3.5000E-01  6.5000E-01
 cg2d: Sum(rhs),rhsMax =  -4.93993734806963E-13  6.98488808853708E+00
(PID.TID 0000.0001)                    cg2d_init_res =    3.34729997410535E-01
(PID.TID 0000.0001)                       cg2d_iters =    24
(PID.TID 0000.0001)                         cg2d_res =    5.75069307953961E-14
(PID.TID 0000.0001) // =======================================================
(PID.TID 0000.0001) // Begin MONITOR dynamic field statistics
(PID.TID 0000.0001) // =======================================================
(PID.TID 0000.0001) %MON time_tsnumber                =                   112
(PID.TID 0000.0001) %MON time_secondsf                =   4.8384000000000E+06
(PID.TID 0000.0001) %MON dynstat_eta_max              =   7.9417107291110E-01
(PID.TID 0000.0001) %MON dynstat_eta_min              =  -1.4539277281959E+00
(PID.TID 0000.0001) %MON dynstat_eta_mean             =   1.0107224548788E-17
(PID.TID 0000.0001) %MON dynstat_eta_sd               =   4.8210720410667E-01
(PID.TID 0000.0001) %MON dynstat_eta_del2             =   1.8891895269255E-02
(PID.TID 0000.0001) %MON dynstat_uvel_max             =   2.0187102046151E-01
(PID.TID 0000.0001) %MON dynstat_uvel_min             =  -1.4130237735863E-01
(PID.TID 0000.0001) %MON dynstat_uvel_mean            =   9.0987087381523E-04
(PID.TID 0000.0001) %MON dynstat_uvel_sd              =   1.6387213184919E-02
(PID.TID 0000.0001) %MON dynstat_uvel_del2            =   4.6347349007647E-03
(PID.TID 0000.0001) %MON dynstat_vvel_max             =   1.6789263290340E-01
(PID.TID 0000.0001) %MON dynstat_vvel_min             =  -1.4110975715574E-01
(PID.TID 0000.0001) %MON dynstat_vvel_mean            =   1.6029742407381E-03
(PID.TID 0000.0001) %MON dynstat_vvel_sd              =   1.4295278283821E-02
(PID.TID 0000.0001) %MON dynstat_vvel_del2            =   4.1558251166149E-03
(PID.TID 0000.0001) %MON dynstat_wvel_max             =   3.2481213485160E-04
(PID.TID 0000.0001) %MON dynstat_wvel_min             =  -1.7843363286331E-04
(PID.TID 0000.0001) %MON dynstat_wvel_mean            =   3.6077683677266E-22
(PID.TID 0000.0001) %MON dynstat_wvel_sd              =   1.9660753738648E-05
(PID.TID 0000.0001) %MON dynstat_wvel_del2            =   7.4599601699460E-06
(PID.TID 0000.0001) %MON dynstat_theta_max            =   2.9877649789504E+01
(PID.TID 0000.0001) %MON dynstat_theta_min            =  -1.9270847289057E+00
(PID.TID 0000.0001) %MON dynstat_theta_mean           =   3.5886137638482E+00
(PID.TID 0000.0001) %MON dynstat_theta_sd             =   4.3343920602103E+00
(PID.TID 0000.0001) %MON dynstat_theta_del2           =   1.2776529391272E-01
(PID.TID 0000.0001) %MON dynstat_salt_max             =   3.7383502537072E+01
(PID.TID 0000.0001) %MON dynstat_salt_min             =   2.9704244680189E+01
(PID.TID 0000.0001) %MON dynstat_salt_mean            =   3.4716022285937E+01
(PID.TID 0000.0001) %MON dynstat_salt_sd              =   2.9307244756572E-01
(PID.TID 0000.0001) %MON dynstat_salt_del2            =   2.2554123953517E-02
(PID.TID 0000.0001) %MON advcfl_uvel_max              =   3.3362781305573E-02
(PID.TID 0000.0001) %MON advcfl_vvel_max              =   1.6309422949514E-02
(PID.TID 0000.0001) %MON advcfl_wvel_max              =   5.5650252858783E-02
(PID.TID 0000.0001) %MON advcfl_W_hf_max              =   6.7058881614907E-02
(PID.TID 0000.0001) %MON pe_b_mean                    =   2.9741881745105E-04
(PID.TID 0000.0001) %MON ke_max                       =   2.0340532634157E-02
(PID.TID 0000.0001) %MON ke_mean                      =   2.1527572385906E-04
(PID.TID 0000.0001) %MON ke_vol                       =   1.3226782436723E+18
(PID.TID 0000.0001) %MON vort_r_min                   =  -8.3505878408859E-07
(PID.TID 0000.0001) %MON vort_r_max                   =   6.3131797812067E-07
(PID.TID 0000.0001) %MON vort_a_mean                  =  -2.5205768842754E-05
(PID.TID 0000.0001) %MON vort_a_sd                    =   7.3403414801490E-05
(PID.TID 0000.0001) %MON vort_p_mean                  =  -3.1758668863619E-05
(PID.TID 0000.0001) %MON vort_p_sd                    =   1.3126120561132E-04
(PID.TID 0000.0001) %MON surfExpan_theta_mean         =   2.6273157124549E-06
(PID.TID 0000.0001) %MON surfExpan_salt_mean          =  -2.9286738559869E-07
(PID.TID 0000.0001) // =======================================================
(PID.TID 0000.0001) // End MONITOR dynamic field statistics
(PID.TID 0000.0001) // =======================================================
time,SST,SSS,fu,fv,Q,E-P,i0,i1,a,b =   4.8384E+06 -4.0427E-01  3.4479E+01 -1.9115E-02 -1.1381E-02  2.3128E+02  0.0000E+00     2     3  3.6667E-01  6.3333E-01
time,fu0,fu1,fu =   4.8384E+06 -1.4435E-02 -2.7199E-02 -1.9115E-02  3.6667E-01  6.3333E-01
 cg2d: Sum(rhs),rhsMax =  -7.86981591005542E-13  7.04590464939738E+00
(PID.TID 0000.0001)                    cg2d_init_res =    3.28825646092412E-01
(PID.TID 0000.0001)                       cg2d_iters =    24
(PID.TID 0000.0001)                         cg2d_res =    5.39216597325211E-14
(PID.TID 0000.0001) // =======================================================
(PID.TID 0000.0001) // Begin MONITOR dynamic field statistics
(PID.TID 0000.0001) // =======================================================
(PID.TID 0000.0001) %MON time_tsnumber                =                   113
(PID.TID 0000.0001) %MON time_secondsf                =   4.8816000000000E+06
(PID.TID 0000.0001) %MON dynstat_eta_max              =   8.0147592919754E-01
(PID.TID 0000.0001) %MON dynstat_eta_min              =  -1.4589394163555E+00
(PID.TID 0000.0001) %MON dynstat_eta_mean             =   5.7779102448757E-17
(PID.TID 0000.0001) %MON dynstat_eta_sd               =   4.8332543027506E-01
(PID.TID 0000.0001) %MON dynstat_eta_del2             =   1.8875821429990E-02
(PID.TID 0000.0001) %MON dynstat_uvel_max             =   2.0280503423558E-01
(PID.TID 0000.0001) %MON dynstat_uvel_min             =  -1.4034998193532E-01
(PID.TID 0000.0001) %MON dynstat_uvel_mean            =   9.1679285923011E-04
(PID.TID 0000.0001) %MON dynstat_uvel_sd              =   1.6453804178689E-02
(PID.TID 0000.0001) %MON dynstat_uvel_del2            =   4.6224539745293E-03
(PID.TID 0000.0001) %MON dynstat_vvel_max             =   1.6889408609214E-01
(PID.TID 0000.0001) %MON dynstat_vvel_min             =  -1.4214174781898E-01
(PID.TID 0000.0001) %MON dynstat_vvel_mean            =   1.6341723399449E-03
(PID.TID 0000.0001) %MON dynstat_vvel_sd              =   1.4295076144344E-02
(PID.TID 0000.0001) %MON dynstat_vvel_del2            =   4.1506746068709E-03
(PID.TID 0000.0001) %MON dynstat_wvel_max             =   3.1950738330593E-04
(PID.TID 0000.0001) %MON dynstat_wvel_min             =  -1.7717648366209E-04
(PID.TID 0000.0001) %MON dynstat_wvel_mean            =   1.0636177051353E-22
(PID.TID 0000.0001) %MON dynstat_wvel_sd              =   1.9571376828839E-05
(PID.TID 0000.0001) %MON dynstat_wvel_del2            =   7.4213994622012E-06
(PID.TID 0000.0001) %MON dynstat_theta_max            =   2.9881193955973E+01
(PID.TID 0000.0001) %MON dynstat_theta_min            =  -1.9271187614668E+00
(PID.TID 0000.0001) %MON dynstat_theta_mean           =   3.5886275323455E+00
(PID.TID 0000.0001) %MON dynstat_theta_sd             =   4.3345295104453E+00
(PID.TID 0000.0001) %MON dynstat_theta_del2           =   1.2763243633515E-01
(PID.TID 0000.0001) %MON dynstat_salt_max             =   3.7383040171265E+01
(PID.TID 0000.0001) %MON dynstat_salt_min             =   2.9702928292537E+01
(PID.TID 0000.0001) %MON dynstat_salt_mean            =   3.4716026315896E+01
(PID.TID 0000.0001) %MON dynstat_salt_sd              =   2.9303971300128E-01
(PID.TID 0000.0001) %MON dynstat_salt_del2            =   2.2523918820254E-02
(PID.TID 0000.0001) %MON advcfl_uvel_max              =   3.3517143715835E-02
(PID.TID 0000.0001) %MON advcfl_vvel_max              =   1.6406706096111E-02
(PID.TID 0000.0001) %MON advcfl_wvel_max              =   6.0681802048784E-02
(PID.TID 0000.0001) %MON advcfl_W_hf_max              =   6.8138516414162E-02
(PID.TID 0000.0001) %MON pe_b_mean                    =   2.9892379873666E-04
(PID.TID 0000.0001) %MON ke_max                       =   2.0790833766757E-02
(PID.TID 0000.0001) %MON ke_mean                      =   2.1631776285548E-04
(PID.TID 0000.0001) %MON ke_vol                       =   1.3226782436723E+18
(PID.TID 0000.0001) %MON vort_r_min                   =  -8.3629887452761E-07
(PID.TID 0000.0001) %MON vort_r_max                   =   6.3181976415343E-07
(PID.TID 0000.0001) %MON vort_a_mean                  =  -2.5205768875859E-05
(PID.TID 0000.0001) %MON vort_a_sd                    =   7.3403414915832E-05
(PID.TID 0000.0001) %MON vort_p_mean                  =  -3.1758668905332E-05
(PID.TID 0000.0001) %MON vort_p_sd                    =   1.3126115543761E-04
(PID.TID 0000.0001) %MON surfExpan_theta_mean         =   2.3637345384964E-06
(PID.TID 0000.0001) %MON surfExpan_salt_mean          =  -3.3909387706199E-07
(PID.TID 0000.0001) // =======================================================
(PID.TID 0000.0001) // End MONITOR dynamic field statistics
(PID.TID 0000.0001) // =======================================================
time,SST,SSS,fu,fv,Q,E-P,i0,i1,a,b =   4.8816E+06 -3.9848E-01  3.4482E+01 -1.9328E-02 -1.1097E-02  2.3087E+02  0.0000E+00     2     3  3.8333E-01  6.1667E-01
time,fu0,fu1,fu =   4.8816E+06 -1.4435E-02 -2.7199E-02 -1.9328E-02  3.8333E-01  6.1667E-01
 cg2d: Sum(rhs),rhsMax =  -5.15712472726193E-13  7.09712826199562E+00
(PID.TID 0000.0001)                    cg2d_init_res =    3.21323059584812E-01
(PID.TID 0000.0001)                       cg2d_iters =    24
(PID.TID 0000.0001)                         cg2d_res =    5.09999826793847E-14
(PID.TID 0000.0001) // =======================================================
(PID.TID 0000.0001) // Begin MONITOR dynamic field statistics
(PID.TID 0000.0001) // =======================================================
(PID.TID 0000.0001) %MON time_tsnumber                =                   114
(PID.TID 0000.0001) %MON time_secondsf                =   4.9248000000000E+06
(PID.TID 0000.0001) %MON dynstat_eta_max              =   8.0765445711061E-01
(PID.TID 0000.0001) %MON dynstat_eta_min              =  -1.4632938223786E+00
(PID.TID 0000.0001) %MON dynstat_eta_mean             =   2.0950766407852E-16
(PID.TID 0000.0001) %MON dynstat_eta_sd               =   4.8453578052479E-01
(PID.TID 0000.0001) %MON dynstat_eta_del2             =   1.8853572719477E-02
(PID.TID 0000.0001) %MON dynstat_uvel_max             =   2.0292685272106E-01
(PID.TID 0000.0001) %MON dynstat_uvel_min             =  -1.3927723679160E-01
(PID.TID 0000.0001) %MON dynstat_uvel_mean            =   9.2411318884804E-04
(PID.TID 0000.0001) %MON dynstat_uvel_sd              =   1.6511140554421E-02
(PID.TID 0000.0001) %MON dynstat_uvel_del2            =   4.6081242559536E-03
(PID.TID 0000.0001) %MON dynstat_vvel_max             =   1.6974516748613E-01
(PID.TID 0000.0001) %MON dynstat_vvel_min             =  -1.4298634052228E-01
(PID.TID 0000.0001) %MON dynstat_vvel_mean            =   1.6575619758158E-03
(PID.TID 0000.0001) %MON dynstat_vvel_sd              =   1.4294249140942E-02
(PID.TID 0000.0001) %MON dynstat_vvel_del2            =   4.1445243940559E-03
(PID.TID 0000.0001) %MON dynstat_wvel_max             =   3.1419722194309E-04
(PID.TID 0000.0001) %MON dynstat_wvel_min             =  -1.7744013626241E-04
(PID.TID 0000.0001) %MON dynstat_wvel_mean            =   5.7919692723293E-22
(PID.TID 0000.0001) %MON dynstat_wvel_sd              =   1.9477111779475E-05
(PID.TID 0000.0001) %MON dynstat_wvel_del2            =   7.3809976841351E-06
(PID.TID 0000.0001) %MON dynstat_theta_max            =   2.9884283843363E+01
(PID.TID 0000.0001) %MON dynstat_theta_min            =  -1.9290501142630E+00
(PID.TID 0000.0001) %MON dynstat_theta_mean           =   3.5886432740917E+00
(PID.TID 0000.0001) %MON dynstat_theta_sd             =   4.3346714214424E+00
(PID.TID 0000.0001) %MON dynstat_theta_del2           =   1.2749380705736E-01
(PID.TID 0000.0001) %MON dynstat_salt_max             =   3.7382576471603E+01
(PID.TID 0000.0001) %MON dynstat_salt_min             =   2.9701651335461E+01
(PID.TID 0000.0001) %MON dynstat_salt_mean            =   3.4716030852749E+01
(PID.TID 0000.0001) %MON dynstat_salt_sd              =   2.9300696512332E-01
(PID.TID 0000.0001) %MON dynstat_salt_del2            =   2.2493645030415E-02
(PID.TID 0000.0001) %MON advcfl_uvel_max              =   3.3537276390059E-02
(PID.TID 0000.0001) %MON advcfl_vvel_max              =   1.6489381828685E-02
(PID.TID 0000.0001) %MON advcfl_wvel_max              =   6.4270270239961E-02
(PID.TID 0000.0001) %MON advcfl_W_hf_max              =   7.2174794907884E-02
(PID.TID 0000.0001) %MON pe_b_mean                    =   3.0042281156393E-04
(PID.TID 0000.0001) %MON ke_max                       =   2.1107519147381E-02
(PID.TID 0000.0001) %MON ke_mean                      =   2.1720653262204E-04
(PID.TID 0000.0001) %MON ke_vol                       =   1.3226782436723E+18
(PID.TID 0000.0001) %MON vort_r_min                   =  -8.3660663889888E-07
(PID.TID 0000.0001) %MON vort_r_max                   =   6.3046071437786E-07
(PID.TID 0000.0001) %MON vort_a_mean                  =  -2.5205768908115E-05
(PID.TID 0000.0001) %MON vort_a_sd                    =   7.3403415144083E-05
(PID.TID 0000.0001) %MON vort_p_mean                  =  -3.1758668945973E-05
(PID.TID 0000.0001) %MON vort_p_sd                    =   1.3126110896853E-04
(PID.TID 0000.0001) %MON surfExpan_theta_mean         =   2.1307622051192E-06
(PID.TID 0000.0001) %MON surfExpan_salt_mean          =  -3.8463990400124E-07
(PID.TID 0000.0001) // =======================================================
(PID.TID 0000.0001) // End MONITOR dynamic field statistics
(PID.TID 0000.0001) // =======================================================
time,SST,SSS,fu,fv,Q,E-P,i0,i1,a,b =   4.9248E+06 -3.9268E-01  3.4484E+01 -1.9540E-02 -1.0813E-02  2.3045E+02  0.0000E+00     2     3  4.0000E-01  6.0000E-01
time,fu0,fu1,fu =   4.9248E+06 -1.4435E-02 -2.7199E-02 -1.9540E-02  4.0000E-01  6.0000E-01
 cg2d: Sum(rhs),rhsMax =   1.51614831800373E-13  7.13562332275187E+00
(PID.TID 0000.0001)                    cg2d_init_res =    3.12662109093299E-01
(PID.TID 0000.0001)                       cg2d_iters =    24
(PID.TID 0000.0001)                         cg2d_res =    4.92032680621897E-14
(PID.TID 0000.0001) // =======================================================
(PID.TID 0000.0001) // Begin MONITOR dynamic field statistics
(PID.TID 0000.0001) // =======================================================
(PID.TID 0000.0001) %MON time_tsnumber                =                   115
(PID.TID 0000.0001) %MON time_secondsf                =   4.9680000000000E+06
(PID.TID 0000.0001) %MON dynstat_eta_max              =   8.1237652300023E-01
(PID.TID 0000.0001) %MON dynstat_eta_min              =  -1.4671566574770E+00
(PID.TID 0000.0001) %MON dynstat_eta_mean             =  -9.6469765249846E-17
(PID.TID 0000.0001) %MON dynstat_eta_sd               =   4.8573192864427E-01
(PID.TID 0000.0001) %MON dynstat_eta_del2             =   1.8843605759767E-02
(PID.TID 0000.0001) %MON dynstat_uvel_max             =   2.0225032330694E-01
(PID.TID 0000.0001) %MON dynstat_uvel_min             =  -1.3809159865733E-01
(PID.TID 0000.0001) %MON dynstat_uvel_mean            =   9.3150967414581E-04
(PID.TID 0000.0001) %MON dynstat_uvel_sd              =   1.6559845074664E-02
(PID.TID 0000.0001) %MON dynstat_uvel_del2            =   4.5921797992842E-03
(PID.TID 0000.0001) %MON dynstat_vvel_max             =   1.7044542385159E-01
(PID.TID 0000.0001) %MON dynstat_vvel_min             =  -1.4364868519500E-01
(PID.TID 0000.0001) %MON dynstat_vvel_mean            =   1.6735187580112E-03
(PID.TID 0000.0001) %MON dynstat_vvel_sd              =   1.4291050339188E-02
(PID.TID 0000.0001) %MON dynstat_vvel_del2            =   4.1380700272129E-03
(PID.TID 0000.0001) %MON dynstat_wvel_max             =   3.0890763239562E-04
(PID.TID 0000.0001) %MON dynstat_wvel_min             =  -1.7712860597328E-04
(PID.TID 0000.0001) %MON dynstat_wvel_mean            =  -2.8590885573671E-23
(PID.TID 0000.0001) %MON dynstat_wvel_sd              =   1.9377840153078E-05
(PID.TID 0000.0001) %MON dynstat_wvel_del2            =   7.3398811933455E-06
(PID.TID 0000.0001) %MON dynstat_theta_max            =   2.9886901868578E+01
(PID.TID 0000.0001) %MON dynstat_theta_min            =  -1.9280857105013E+00
(PID.TID 0000.0001) %MON dynstat_theta_mean           =   3.5886605694909E+00
(PID.TID 0000.0001) %MON dynstat_theta_sd             =   4.3348159193987E+00
(PID.TID 0000.0001) %MON dynstat_theta_del2           =   1.2735361696382E-01
(PID.TID 0000.0001) %MON dynstat_salt_max             =   3.7382112979435E+01
(PID.TID 0000.0001) %MON dynstat_salt_min             =   2.9700413782392E+01
(PID.TID 0000.0001) %MON dynstat_salt_mean            =   3.4716035866264E+01
(PID.TID 0000.0001) %MON dynstat_salt_sd              =   2.9297425985138E-01
(PID.TID 0000.0001) %MON dynstat_salt_del2            =   2.2463960258334E-02
(PID.TID 0000.0001) %MON advcfl_uvel_max              =   3.3425467855885E-02
(PID.TID 0000.0001) %MON advcfl_vvel_max              =   1.6557406119208E-02
(PID.TID 0000.0001) %MON advcfl_wvel_max              =   6.6544571359908E-02
(PID.TID 0000.0001) %MON advcfl_W_hf_max              =   7.4729538171139E-02
(PID.TID 0000.0001) %MON pe_b_mean                    =   3.0190791854696E-04
(PID.TID 0000.0001) %MON ke_max                       =   2.1287150149935E-02
(PID.TID 0000.0001) %MON ke_mean                      =   2.1792734848279E-04
(PID.TID 0000.0001) %MON ke_vol                       =   1.3226782436723E+18
(PID.TID 0000.0001) %MON vort_r_min                   =  -8.3605170038370E-07
(PID.TID 0000.0001) %MON vort_r_max                   =   6.2728136736175E-07
(PID.TID 0000.0001) %MON vort_a_mean                  =  -2.5205768939521E-05
(PID.TID 0000.0001) %MON vort_a_sd                    =   7.3403415389595E-05
(PID.TID 0000.0001) %MON vort_p_mean                  =  -3.1758668985543E-05
(PID.TID 0000.0001) %MON vort_p_sd                    =   1.3126106622432E-04
(PID.TID 0000.0001) %MON surfExpan_theta_mean         =   1.9342405308304E-06
(PID.TID 0000.0001) %MON surfExpan_salt_mean          =  -4.2835843832583E-07
(PID.TID 0000.0001) // =======================================================
(PID.TID 0000.0001) // End MONITOR dynamic field statistics
(PID.TID 0000.0001) // =======================================================
time,SST,SSS,fu,fv,Q,E-P,i0,i1,a,b =   4.9680E+06 -3.8688E-01  3.4487E+01 -1.9753E-02 -1.0528E-02  2.3003E+02  0.0000E+00     2     3  4.1667E-01  5.8333E-01
time,fu0,fu1,fu =   4.9680E+06 -1.4435E-02 -2.7199E-02 -1.9753E-02  4.1667E-01  5.8333E-01
 cg2d: Sum(rhs),rhsMax =   4.51069737117393E-13  7.15894849787933E+00
(PID.TID 0000.0001)                    cg2d_init_res =    3.03393768981478E-01
(PID.TID 0000.0001)                       cg2d_iters =    24
(PID.TID 0000.0001)                         cg2d_res =    4.88629157360448E-14
(PID.TID 0000.0001) // =======================================================
(PID.TID 0000.0001) // Begin MONITOR dynamic field statistics
(PID.TID 0000.0001) // =======================================================
(PID.TID 0000.0001) %MON time_tsnumber                =                   116
(PID.TID 0000.0001) %MON time_secondsf                =   5.0112000000000E+06
(PID.TID 0000.0001) %MON dynstat_eta_max              =   8.1536772440187E-01
(PID.TID 0000.0001) %MON dynstat_eta_min              =  -1.4706829081463E+00
(PID.TID 0000.0001) %MON dynstat_eta_mean             =  -1.0872464831315E-16
(PID.TID 0000.0001) %MON dynstat_eta_sd               =   4.8690763766130E-01
(PID.TID 0000.0001) %MON dynstat_eta_del2             =   1.8854171664345E-02
(PID.TID 0000.0001) %MON dynstat_uvel_max             =   2.0080339272261E-01
(PID.TID 0000.0001) %MON dynstat_uvel_min             =  -1.3680119842556E-01
(PID.TID 0000.0001) %MON dynstat_uvel_mean            =   9.3863758322460E-04
(PID.TID 0000.0001) %MON dynstat_uvel_sd              =   1.6600797382535E-02
(PID.TID 0000.0001) %MON dynstat_uvel_del2            =   4.5754002100779E-03
(PID.TID 0000.0001) %MON dynstat_vvel_max             =   1.7099512232574E-01
(PID.TID 0000.0001) %MON dynstat_vvel_min             =  -1.4413562109831E-01
(PID.TID 0000.0001) %MON dynstat_vvel_mean            =   1.6825216144806E-03
(PID.TID 0000.0001) %MON dynstat_vvel_sd              =   1.4283854384017E-02
(PID.TID 0000.0001) %MON dynstat_vvel_del2            =   4.1304507220753E-03
(PID.TID 0000.0001) %MON dynstat_wvel_max             =   3.0366198489244E-04
(PID.TID 0000.0001) %MON dynstat_wvel_min             =  -1.7628561579424E-04
(PID.TID 0000.0001) %MON dynstat_wvel_mean            =  -2.4913813763838E-22
(PID.TID 0000.0001) %MON dynstat_wvel_sd              =   1.9273723753050E-05
(PID.TID 0000.0001) %MON dynstat_wvel_del2            =   7.2975779549947E-06
(PID.TID 0000.0001) %MON dynstat_theta_max            =   2.9888962414838E+01
(PID.TID 0000.0001) %MON dynstat_theta_min            =  -1.9277394030408E+00
(PID.TID 0000.0001) %MON dynstat_theta_mean           =   3.5886789235885E+00
(PID.TID 0000.0001) %MON dynstat_theta_sd             =   4.3349609747123E+00
(PID.TID 0000.0001) %MON dynstat_theta_del2           =   1.2721378012315E-01
(PID.TID 0000.0001) %MON dynstat_salt_max             =   3.7381651410634E+01
(PID.TID 0000.0001) %MON dynstat_salt_min             =   2.9699215353701E+01
(PID.TID 0000.0001) %MON dynstat_salt_mean            =   3.4716041314106E+01
(PID.TID 0000.0001) %MON dynstat_salt_sd              =   2.9294160114474E-01
(PID.TID 0000.0001) %MON dynstat_salt_del2            =   2.2437012597024E-02
(PID.TID 0000.0001) %MON advcfl_uvel_max              =   3.3186336808055E-02
(PID.TID 0000.0001) %MON advcfl_vvel_max              =   1.6610804917921E-02
(PID.TID 0000.0001) %MON advcfl_wvel_max              =   6.7667378504084E-02
(PID.TID 0000.0001) %MON advcfl_W_hf_max              =   7.5818117897545E-02
(PID.TID 0000.0001) %MON pe_b_mean                    =   3.0337121722945E-04
(PID.TID 0000.0001) %MON ke_max                       =   2.1329163359218E-02
(PID.TID 0000.0001) %MON ke_mean                      =   2.1847161761681E-04
(PID.TID 0000.0001) %MON ke_vol                       =   1.3226782436723E+18
(PID.TID 0000.0001) %MON vort_r_min                   =  -8.3470838623516E-07
(PID.TID 0000.0001) %MON vort_r_max                   =   6.2234813521019E-07
(PID.TID 0000.0001) %MON vort_a_mean                  =  -2.5205768969777E-05
(PID.TID 0000.0001) %MON vort_a_sd                    =   7.3403415556960E-05
(PID.TID 0000.0001) %MON vort_p_mean                  =  -3.1758669023665E-05
(PID.TID 0000.0001) %MON vort_p_sd                    =   1.3126102710925E-04
(PID.TID 0000.0001) %MON surfExpan_theta_mean         =   1.7799021844826E-06
(PID.TID 0000.0001) %MON surfExpan_salt_mean          =  -4.6910423109626E-07
(PID.TID 0000.0001) // =======================================================
(PID.TID 0000.0001) // End MONITOR dynamic field statistics
(PID.TID 0000.0001) // =======================================================
time,SST,SSS,fu,fv,Q,E-P,i0,i1,a,b =   5.0112E+06 -3.8108E-01  3.4490E+01 -1.9966E-02 -1.0244E-02  2.2961E+02  0.0000E+00     2     3  4.3333E-01  5.6667E-01
time,fu0,fu1,fu =   5.0112E+06 -1.4435E-02 -2.7199E-02 -1.9966E-02  4.3333E-01  5.6667E-01
 cg2d: Sum(rhs),rhsMax =  -6.91349755221893E-13  7.16526382013588E+00
(PID.TID 0000.0001)                    cg2d_init_res =    2.94125363671197E-01
(PID.TID 0000.0001)                       cg2d_iters =    24
(PID.TID 0000.0001)                         cg2d_res =    5.00423932870709E-14
(PID.TID 0000.0001) // =======================================================
(PID.TID 0000.0001) // Begin MONITOR dynamic field statistics
(PID.TID 0000.0001) // =======================================================
(PID.TID 0000.0001) %MON time_tsnumber                =                   117
(PID.TID 0000.0001) %MON time_secondsf                =   5.0544000000000E+06
(PID.TID 0000.0001) %MON dynstat_eta_max              =   8.1642129825639E-01
(PID.TID 0000.0001) %MON dynstat_eta_min              =  -1.4740116112529E+00
(PID.TID 0000.0001) %MON dynstat_eta_mean             =  -3.7518263280543E-17
(PID.TID 0000.0001) %MON dynstat_eta_sd               =   4.8805743741550E-01
(PID.TID 0000.0001) %MON dynstat_eta_del2             =   1.8856787944576E-02
(PID.TID 0000.0001) %MON dynstat_uvel_max             =   1.9862724312478E-01
(PID.TID 0000.0001) %MON dynstat_uvel_min             =  -1.3618146666437E-01
(PID.TID 0000.0001) %MON dynstat_uvel_mean            =   9.4514035056962E-04
(PID.TID 0000.0001) %MON dynstat_uvel_sd              =   1.6635002744791E-02
(PID.TID 0000.0001) %MON dynstat_uvel_del2            =   4.5586486249567E-03
(PID.TID 0000.0001) %MON dynstat_vvel_max             =   1.7139516674057E-01
(PID.TID 0000.0001) %MON dynstat_vvel_min             =  -1.4445546195534E-01
(PID.TID 0000.0001) %MON dynstat_vvel_mean            =   1.6851300637100E-03
(PID.TID 0000.0001) %MON dynstat_vvel_sd              =   1.4271252346797E-02
(PID.TID 0000.0001) %MON dynstat_vvel_del2            =   4.1223216038751E-03
(PID.TID 0000.0001) %MON dynstat_wvel_max             =   2.9848069235147E-04
(PID.TID 0000.0001) %MON dynstat_wvel_min             =  -1.7551350362710E-04
(PID.TID 0000.0001) %MON dynstat_wvel_mean            =  -2.1955193464730E-22
(PID.TID 0000.0001) %MON dynstat_wvel_sd              =   1.9165199230331E-05
(PID.TID 0000.0001) %MON dynstat_wvel_del2            =   7.2527127710169E-06
(PID.TID 0000.0001) %MON dynstat_theta_max            =   2.9890412051874E+01
(PID.TID 0000.0001) %MON dynstat_theta_min            =  -1.9273585655852E+00
(PID.TID 0000.0001) %MON dynstat_theta_mean           =   3.5886977714440E+00
(PID.TID 0000.0001) %MON dynstat_theta_sd             =   4.3351044651589E+00
(PID.TID 0000.0001) %MON dynstat_theta_del2           =   1.2708983744282E-01
(PID.TID 0000.0001) %MON dynstat_salt_max             =   3.7381193400510E+01
(PID.TID 0000.0001) %MON dynstat_salt_min             =   2.9698055490067E+01
(PID.TID 0000.0001) %MON dynstat_salt_mean            =   3.4716047141090E+01
(PID.TID 0000.0001) %MON dynstat_salt_sd              =   2.9290938642099E-01
(PID.TID 0000.0001) %MON dynstat_salt_del2            =   2.2414960424187E-02
(PID.TID 0000.0001) %MON advcfl_uvel_max              =   3.2826689331391E-02
(PID.TID 0000.0001) %MON advcfl_vvel_max              =   1.6649666024851E-02
(PID.TID 0000.0001) %MON advcfl_wvel_max              =   6.7368760688086E-02
(PID.TID 0000.0001) %MON advcfl_W_hf_max              =   7.5490062285351E-02
(PID.TID 0000.0001) %MON pe_b_mean                    =   3.0480569053391E-04
(PID.TID 0000.0001) %MON ke_max                       =   2.1235816602640E-02
(PID.TID 0000.0001) %MON ke_mean                      =   2.1883605776706E-04
(PID.TID 0000.0001) %MON ke_vol                       =   1.3226782436723E+18
(PID.TID 0000.0001) %MON vort_r_min                   =  -8.3265415608290E-07
(PID.TID 0000.0001) %MON vort_r_max                   =   6.1575278432010E-07
(PID.TID 0000.0001) %MON vort_a_mean                  =  -2.5205768998587E-05
(PID.TID 0000.0001) %MON vort_a_sd                    =   7.3403415551375E-05
(PID.TID 0000.0001) %MON vort_p_mean                  =  -3.1758669059965E-05
(PID.TID 0000.0001) %MON vort_p_sd                    =   1.3126099147500E-04
(PID.TID 0000.0001) %MON surfExpan_theta_mean         =   1.6725090586256E-06
(PID.TID 0000.0001) %MON surfExpan_salt_mean          =  -5.0577867291879E-07
(PID.TID 0000.0001) // =======================================================
(PID.TID 0000.0001) // End MONITOR dynamic field statistics
(PID.TID 0000.0001) // =======================================================
time,SST,SSS,fu,fv,Q,E-P,i0,i1,a,b =   5.0544E+06 -3.7528E-01  3.4492E+01 -2.0179E-02 -9.9597E-03  2.2919E+02  0.0000E+00     2     3  4.5000E-01  5.5000E-01
time,fu0,fu1,fu =   5.0544E+06 -1.4435E-02 -2.7199E-02 -2.0179E-02  4.5000E-01  5.5000E-01
 cg2d: Sum(rhs),rhsMax =   2.06418215853432E-13  7.15340790399992E+00
(PID.TID 0000.0001)                    cg2d_init_res =    2.85501727902123E-01
(PID.TID 0000.0001)                       cg2d_iters =    24
(PID.TID 0000.0001)                         cg2d_res =    5.23404347828300E-14
(PID.TID 0000.0001) // =======================================================
(PID.TID 0000.0001) // Begin MONITOR dynamic field statistics
(PID.TID 0000.0001) // =======================================================
(PID.TID 0000.0001) %MON time_tsnumber                =                   118
(PID.TID 0000.0001) %MON time_secondsf                =   5.0976000000000E+06
(PID.TID 0000.0001) %MON dynstat_eta_max              =   8.1540655372987E-01
(PID.TID 0000.0001) %MON dynstat_eta_min              =  -1.4772617814791E+00
(PID.TID 0000.0001) %MON dynstat_eta_mean             =   3.5108781390733E-17
(PID.TID 0000.0001) %MON dynstat_eta_sd               =   4.8917726053503E-01
(PID.TID 0000.0001) %MON dynstat_eta_del2             =   1.8874651522004E-02
(PID.TID 0000.0001) %MON dynstat_uvel_max             =   1.9577511959976E-01
(PID.TID 0000.0001) %MON dynstat_uvel_min             =  -1.3621416154705E-01
(PID.TID 0000.0001) %MON dynstat_uvel_mean            =   9.5065564077570E-04
(PID.TID 0000.0001) %MON dynstat_uvel_sd              =   1.6663467426040E-02
(PID.TID 0000.0001) %MON dynstat_uvel_del2            =   4.5432993493387E-03
(PID.TID 0000.0001) %MON dynstat_vvel_max             =   1.7164700383568E-01
(PID.TID 0000.0001) %MON dynstat_vvel_min             =  -1.4461776525006E-01
(PID.TID 0000.0001) %MON dynstat_vvel_mean            =   1.6819593391605E-03
(PID.TID 0000.0001) %MON dynstat_vvel_sd              =   1.4252134238297E-02
(PID.TID 0000.0001) %MON dynstat_vvel_del2            =   4.1127142510468E-03
(PID.TID 0000.0001) %MON dynstat_wvel_max             =   2.9338092440484E-04
(PID.TID 0000.0001) %MON dynstat_wvel_min             =  -1.7576824305394E-04
(PID.TID 0000.0001) %MON dynstat_wvel_mean            =   4.9796289172811E-23
(PID.TID 0000.0001) %MON dynstat_wvel_sd              =   1.9052933780933E-05
(PID.TID 0000.0001) %MON dynstat_wvel_del2            =   7.2075954789443E-06
(PID.TID 0000.0001) %MON dynstat_theta_max            =   2.9891205917674E+01
(PID.TID 0000.0001) %MON dynstat_theta_min            =  -1.9327922806321E+00
(PID.TID 0000.0001) %MON dynstat_theta_mean           =   3.5887164973018E+00
(PID.TID 0000.0001) %MON dynstat_theta_sd             =   4.3352456140463E+00
(PID.TID 0000.0001) %MON dynstat_theta_del2           =   1.2694494387203E-01
(PID.TID 0000.0001) %MON dynstat_salt_max             =   3.7380740428911E+01
(PID.TID 0000.0001) %MON dynstat_salt_min             =   2.9696933332139E+01
(PID.TID 0000.0001) %MON dynstat_salt_mean            =   3.4716053281615E+01
(PID.TID 0000.0001) %MON dynstat_salt_sd              =   2.9287807543064E-01
(PID.TID 0000.0001) %MON dynstat_salt_del2            =   2.2388802213266E-02
(PID.TID 0000.0001) %MON advcfl_uvel_max              =   3.2355325124660E-02
(PID.TID 0000.0001) %MON advcfl_vvel_max              =   1.6674129979150E-02
(PID.TID 0000.0001) %MON advcfl_wvel_max              =   6.5730572151899E-02
(PID.TID 0000.0001) %MON advcfl_W_hf_max              =   7.3827163692610E-02
(PID.TID 0000.0001) %MON pe_b_mean                    =   3.0620601768181E-04
(PID.TID 0000.0001) %MON ke_max                       =   2.1012066866717E-02
(PID.TID 0000.0001) %MON ke_mean                      =   2.1902181371169E-04
(PID.TID 0000.0001) %MON ke_vol                       =   1.3226782436723E+18
(PID.TID 0000.0001) %MON vort_r_min                   =  -8.2996808774045E-07
(PID.TID 0000.0001) %MON vort_r_max                   =   6.0761110881968E-07
(PID.TID 0000.0001) %MON vort_a_mean                  =  -2.5205769024235E-05
(PID.TID 0000.0001) %MON vort_a_sd                    =   7.3403415295134E-05
(PID.TID 0000.0001) %MON vort_p_mean                  =  -3.1758669092281E-05
(PID.TID 0000.0001) %MON vort_p_sd                    =   1.3126095918173E-04
(PID.TID 0000.0001) %MON surfExpan_theta_mean         =   1.6181970600122E-06
(PID.TID 0000.0001) %MON surfExpan_salt_mean          =  -5.3714459294377E-07
(PID.TID 0000.0001) // =======================================================
(PID.TID 0000.0001) // End MONITOR dynamic field statistics
(PID.TID 0000.0001) // =======================================================
time,SST,SSS,fu,fv,Q,E-P,i0,i1,a,b =   5.0976E+06 -3.6948E-01  3.4495E+01 -2.0391E-02 -9.6754E-03  2.2877E+02  0.0000E+00     2     3  4.6667E-01  5.3333E-01
time,fu0,fu1,fu =   5.0976E+06 -1.4435E-02 -2.7199E-02 -2.0391E-02  4.6667E-01  5.3333E-01
 cg2d: Sum(rhs),rhsMax =   1.37917455234060E-13  7.12293489014456E+00
(PID.TID 0000.0001)                    cg2d_init_res =    2.78011796964419E-01
(PID.TID 0000.0001)                       cg2d_iters =    24
(PID.TID 0000.0001)                         cg2d_res =    5.51215964480347E-14
(PID.TID 0000.0001) // =======================================================
(PID.TID 0000.0001) // Begin MONITOR dynamic field statistics
(PID.TID 0000.0001) // =======================================================
(PID.TID 0000.0001) %MON time_tsnumber                =                   119
(PID.TID 0000.0001) %MON time_secondsf                =   5.1408000000000E+06
(PID.TID 0000.0001) %MON dynstat_eta_max              =   8.1227305760105E-01
(PID.TID 0000.0001) %MON dynstat_eta_min              =  -1.4805295488536E+00
(PID.TID 0000.0001) %MON dynstat_eta_mean             =  -1.4645878710337E-17
(PID.TID 0000.0001) %MON dynstat_eta_sd               =   4.9026489745716E-01
(PID.TID 0000.0001) %MON dynstat_eta_del2             =   1.8903276317579E-02
(PID.TID 0000.0001) %MON dynstat_uvel_max             =   1.9231123533794E-01
(PID.TID 0000.0001) %MON dynstat_uvel_min             =  -1.3619054574096E-01
(PID.TID 0000.0001) %MON dynstat_uvel_mean            =   9.5483040039205E-04
(PID.TID 0000.0001) %MON dynstat_uvel_sd              =   1.6687087687175E-02
(PID.TID 0000.0001) %MON dynstat_uvel_del2            =   4.5289514149723E-03
(PID.TID 0000.0001) %MON dynstat_vvel_max             =   1.7175252164571E-01
(PID.TID 0000.0001) %MON dynstat_vvel_min             =  -1.4463309056542E-01
(PID.TID 0000.0001) %MON dynstat_vvel_mean            =   1.6736647674136E-03
(PID.TID 0000.0001) %MON dynstat_vvel_sd              =   1.4225749209239E-02
(PID.TID 0000.0001) %MON dynstat_vvel_del2            =   4.1027793674732E-03
(PID.TID 0000.0001) %MON dynstat_wvel_max             =   2.8837656896165E-04
(PID.TID 0000.0001) %MON dynstat_wvel_min             =  -1.7589641841259E-04
(PID.TID 0000.0001) %MON dynstat_wvel_mean            =   2.7826339303702E-22
(PID.TID 0000.0001) %MON dynstat_wvel_sd              =   1.8937543648470E-05
(PID.TID 0000.0001) %MON dynstat_wvel_del2            =   7.1634956474567E-06
(PID.TID 0000.0001) %MON dynstat_theta_max            =   2.9891307642782E+01
(PID.TID 0000.0001) %MON dynstat_theta_min            =  -1.9305193648881E+00
(PID.TID 0000.0001) %MON dynstat_theta_mean           =   3.5887344651267E+00
(PID.TID 0000.0001) %MON dynstat_theta_sd             =   4.3353775181744E+00
(PID.TID 0000.0001) %MON dynstat_theta_del2           =   1.2694109027349E-01
(PID.TID 0000.0001) %MON dynstat_salt_max             =   3.7380293705603E+01
(PID.TID 0000.0001) %MON dynstat_salt_min             =   2.9695847708456E+01
(PID.TID 0000.0001) %MON dynstat_salt_mean            =   3.4716059654881E+01
(PID.TID 0000.0001) %MON dynstat_salt_sd              =   2.9284364955335E-01
(PID.TID 0000.0001) %MON dynstat_salt_del2            =   2.2391782906833E-02
(PID.TID 0000.0001) %MON advcfl_uvel_max              =   3.1782856561164E-02
(PID.TID 0000.0001) %MON advcfl_vvel_max              =   1.6684380188243E-02
(PID.TID 0000.0001) %MON advcfl_wvel_max              =   6.2863114232230E-02
(PID.TID 0000.0001) %MON advcfl_W_hf_max              =   7.0939215108046E-02
(PID.TID 0000.0001) %MON pe_b_mean                    =   3.0756916858527E-04
(PID.TID 0000.0001) %MON ke_max                       =   2.0665390827033E-02
(PID.TID 0000.0001) %MON ke_mean                      =   2.1903348649455E-04
(PID.TID 0000.0001) %MON ke_vol                       =   1.3226782436723E+18
(PID.TID 0000.0001) %MON vort_r_min                   =  -8.2672942821764E-07
(PID.TID 0000.0001) %MON vort_r_max                   =   5.9806088487080E-07
(PID.TID 0000.0001) %MON vort_a_mean                  =  -2.5205769049283E-05
(PID.TID 0000.0001) %MON vort_a_sd                    =   7.3403414671873E-05
(PID.TID 0000.0001) %MON vort_p_mean                  =  -3.1758669123842E-05
(PID.TID 0000.0001) %MON vort_p_sd                    =   1.3126092983445E-04
(PID.TID 0000.0001) %MON surfExpan_theta_mean         =   1.6172773170312E-06
(PID.TID 0000.0001) %MON surfExpan_salt_mean          =  -5.6282576969586E-07
(PID.TID 0000.0001) // =======================================================
(PID.TID 0000.0001) // End MONITOR dynamic field statistics
(PID.TID 0000.0001) // =======================================================
time,SST,SSS,fu,fv,Q,E-P,i0,i1,a,b =   5.1408E+06 -3.6368E-01  3.4497E+01 -2.0604E-02 -9.3911E-03  2.2836E+02  0.0000E+00     2     3  4.8333E-01  5.1667E-01
time,fu0,fu1,fu =   5.1408E+06 -1.4435E-02 -2.7199E-02 -2.0604E-02  4.8333E-01  5.1667E-01
 cg2d: Sum(rhs),rhsMax =  -2.94625435159901E-13  7.07410813212116E+00
(PID.TID 0000.0001)                    cg2d_init_res =    2.72257097724369E-01
(PID.TID 0000.0001)                       cg2d_iters =    24
(PID.TID 0000.0001)                         cg2d_res =    5.74794124712655E-14
(PID.TID 0000.0001) // =======================================================
(PID.TID 0000.0001) // Begin MONITOR dynamic field statistics
(PID.TID 0000.0001) // =======================================================
(PID.TID 0000.0001) %MON time_tsnumber                =                   120
(PID.TID 0000.0001) %MON time_secondsf                =   5.1840000000000E+06
(PID.TID 0000.0001) %MON dynstat_eta_max              =   8.0705029693484E-01
(PID.TID 0000.0001) %MON dynstat_eta_min              =  -1.4838863838738E+00
(PID.TID 0000.0001) %MON dynstat_eta_mean             =  -1.3305119991666E-16
(PID.TID 0000.0001) %MON dynstat_eta_sd               =   4.9132045379496E-01
(PID.TID 0000.0001) %MON dynstat_eta_del2             =   1.8916870120392E-02
(PID.TID 0000.0001) %MON dynstat_uvel_max             =   1.8830939953106E-01
(PID.TID 0000.0001) %MON dynstat_uvel_min             =  -1.3611341059526E-01
(PID.TID 0000.0001) %MON dynstat_uvel_mean            =   9.5732635904875E-04
(PID.TID 0000.0001) %MON dynstat_uvel_sd              =   1.6706562982529E-02
(PID.TID 0000.0001) %MON dynstat_uvel_del2            =   4.5159277422309E-03
(PID.TID 0000.0001) %MON dynstat_vvel_max             =   1.7171394259777E-01
(PID.TID 0000.0001) %MON dynstat_vvel_min             =  -1.4451275322707E-01
(PID.TID 0000.0001) %MON dynstat_vvel_mean            =   1.6608735170388E-03
(PID.TID 0000.0001) %MON dynstat_vvel_sd              =   1.4191760398496E-02
(PID.TID 0000.0001) %MON dynstat_vvel_del2            =   4.0926548613836E-03
(PID.TID 0000.0001) %MON dynstat_wvel_max             =   2.8347833482884E-04
(PID.TID 0000.0001) %MON dynstat_wvel_min             =  -1.7569162854429E-04
(PID.TID 0000.0001) %MON dynstat_wvel_mean            =  -2.1142798567292E-22
(PID.TID 0000.0001) %MON dynstat_wvel_sd              =   1.8819503045182E-05
(PID.TID 0000.0001) %MON dynstat_wvel_del2            =   7.1188252733903E-06
(PID.TID 0000.0001) %MON dynstat_theta_max            =   2.9890676174912E+01
(PID.TID 0000.0001) %MON dynstat_theta_min            =  -1.9280847422537E+00
(PID.TID 0000.0001) %MON dynstat_theta_mean           =   3.5887509835844E+00
(PID.TID 0000.0001) %MON dynstat_theta_sd             =   4.3355059718099E+00
(PID.TID 0000.0001) %MON dynstat_theta_del2           =   1.2680429335516E-01
(PID.TID 0000.0001) %MON dynstat_salt_max             =   3.7379850212554E+01
(PID.TID 0000.0001) %MON dynstat_salt_min             =   2.9694797133275E+01
(PID.TID 0000.0001) %MON dynstat_salt_mean            =   3.4716066179523E+01
(PID.TID 0000.0001) %MON dynstat_salt_sd              =   2.9281351598946E-01
(PID.TID 0000.0001) %MON dynstat_salt_del2            =   2.2367611176028E-02
(PID.TID 0000.0001) %MON advcfl_uvel_max              =   3.1121481924327E-02
(PID.TID 0000.0001) %MON advcfl_vvel_max              =   1.6680632543102E-02
(PID.TID 0000.0001) %MON advcfl_wvel_max              =   5.8900996376648E-02
(PID.TID 0000.0001) %MON advcfl_W_hf_max              =   6.6959912165480E-02
(PID.TID 0000.0001) %MON pe_b_mean                    =   3.0889500726967E-04
(PID.TID 0000.0001) %MON ke_max                       =   2.0205526092261E-02
(PID.TID 0000.0001) %MON ke_mean                      =   2.1887834572908E-04
(PID.TID 0000.0001) %MON ke_vol                       =   1.3226782436723E+18
(PID.TID 0000.0001) %MON vort_r_min                   =  -8.2301624018220E-07
(PID.TID 0000.0001) %MON vort_r_max                   =   5.8725919269670E-07
(PID.TID 0000.0001) %MON vort_a_mean                  =  -2.5205769072562E-05
(PID.TID 0000.0001) %MON vort_a_sd                    =   7.3403413610645E-05
(PID.TID 0000.0001) %MON vort_p_mean                  =  -3.1758669153172E-05
(PID.TID 0000.0001) %MON vort_p_sd                    =   1.3126090316879E-04
(PID.TID 0000.0001) %MON surfExpan_theta_mean         =   1.6769036896960E-06
(PID.TID 0000.0001) %MON surfExpan_salt_mean          =  -5.8081056526369E-07
(PID.TID 0000.0001) // =======================================================
(PID.TID 0000.0001) // End MONITOR dynamic field statistics
(PID.TID 0000.0001) // =======================================================
  --> objf_test(bi,bj)   =  0.
  --> objf_tracer(bi,bj) =  0.
  --> objf_atl(bi,bj)    = -0.135436435
  local fc =  -0.135436435
  global fc =  -0.135436435
 ph-check fcpertplus =  -0.135436435
(PID.TID 0000.0001)  MDSREADFIELD: opening file: xx_theta.0000000000.001.001.data
 ph-check fcpertminus =  -0.135436441
(PID.TID 0000.0001)  MDSREADFIELD: opening file: xx_theta.0000000000.001.001.data
(PID.TID 0000.0001) %MON surfExpanfCori_max           =   1.4226580169407E-04
(PID.TID 0000.0001) %MON surfExpanfCori_min           =  -1.4226580169407E-04
(PID.TID 0000.0001) %MON surfExpanfCori_mean          =   7.5291817533716E-23
(PID.TID 0000.0001) %MON surfExpanfCori_sd            =   9.6335367303778E-05
(PID.TID 0000.0001) %MON surfExpanfCoriG_max          =   1.4112379284621E-04
(PID.TID 0000.0001) %MON surfExpanfCoriG_min          =  -1.4323448157692E-04
(PID.TID 0000.0001) %MON surfExpanfCoriG_mean         =  -3.6726790147928E-06
(PID.TID 0000.0001) %MON surfExpanfCoriG_sd           =   9.7510077443652E-05
(PID.TID 0000.0001) %MON surfExpanfCoriCos_max        =   1.4535550371427E-04
(PID.TID 0000.0001) %MON surfExpanfCoriCos_min        =   3.0239529651320E-05
(PID.TID 0000.0001) %MON surfExpanfCoriCos_mean       =   1.0260497651149E-04
(PID.TID 0000.0001) %MON surfExpanfCoriCos_sd         =   3.6683828681187E-05
(PID.TID 0000.0001) // CG2D normalisation factor =          0.6568267742571170272718184E-04
(PID.TID 0000.0001) 
(PID.TID 0000.0001)  MDSREADFIELD: opening global file: lev_t.bin
(PID.TID 0000.0001) // =======================================================
(PID.TID 0000.0001) // Field Initial Temperature at iteration          1
(PID.TID 0000.0001) // CMIN =         -1.900000000000000E+00
(PID.TID 0000.0001) // CMAX =          2.973338890075684E+01
(PID.TID 0000.0001) // CINT =          1.171606996324327E+00
(PID.TID 0000.0001) // SYMBOLS (CMIN->CMAX): -abcdefghijklmnopqrstuvwxyz+
(PID.TID 0000.0001) //                  0.0: .
(PID.TID 0000.0001) // RANGE I (Lo:Hi:Step):(   1:  90:   1)
(PID.TID 0000.0001) // RANGE J (Lo:Hi:Step):(  40:   1:  -1)
(PID.TID 0000.0001) // RANGE K (Lo:Hi:Step):(   1:   1:   1)
(PID.TID 0000.0001) // =======================================================
(PID.TID 0000.0001) K =   1
(PID.TID 0000.0001)                I=10      I=20      I=30      I=40      I=50      I=60      I=70      I=80      I=90
(PID.TID 0000.0001) |--J--|123456789|123456789|123456789|123456789|123456789|123456789|123456789|123456789|123456789|
(PID.TID 0000.0001)     40 bccdd.baa----abdedd..................................................................bbbbb
(PID.TID 0000.0001)     39 ccdddddccbbbaa...ed.....................................................----........bbbbbb
(PID.TID 0000.0001)     38 fffgfedeedddc...........................................................-----......cbbbcde
(PID.TID 0000.0001)     37 ghh..................................................................bc...bbc...edeed.defg
(PID.TID 0000.0001)     36 hh.........................................ddcb....................dcccbabccdd.eefghhihhih
(PID.TID 0000.0001)     35 hh.................................aaab..dddeddd...ffggg...........ccc....ddeeeffghijjjjih
(PID.TID 0000.0001)     34 ...................................babb.deeeeeee.ffffgghh..................ccdffghijkkkj..
(PID.TID 0000.0001)     33 ....................................accdddeeeeefffffgghhiii.................bcfijkkllllkk.
(PID.TID 0000.0001)     32 ....................................bdddeffgffgghhhhhiiijjj................dccglmnmmmmlll.
(PID.TID 0000.0001)     31 ....................................fghiiiijjjjjjkkkkklllkk..............ikkjjmooooonnmm..
(PID.TID 0000.0001)     30 ...................................mmmnmmmmmmmmmmmmmnnnnnmm............moqrrrqrqqqpppooo..
(PID.TID 0000.0001)     29 .................................pqqqqqpppppppppoppoppppponm...........ssssssrrrrrqqqqpp..
(PID.TID 0000.0001)     28 ...............................prssssrrrsssrrrrrrrrrrrrrqqpoo.........uttssstssrssrrrqqq..
(PID.TID 0000.0001)     27 ..............vv..............stuttuuuuutuuuuuuuuuuttttssrrqqq...stuu.vvvuuuuutttttsss....
(PID.TID 0000.0001)     26 ..............vvv...........uuvvvvvwwwwwwwwvvvvvvvvvuuutttsssttv.uuvxxwwwwwwvvvvuuttsr....
(PID.TID 0000.0001)     25 ..............wwwx...xxx...vvvxxxxxyyxxxxxxxxxwwwwwvvvvvuuuuuvwwx...xxxxxxwwwwwwvvutsr....
(PID.TID 0000.0001)     24 ............wwwwxyy.xxyy...wxx.yyyyyyyyyyyxxxxxxxxwwwwwwwvvwwxxyywww.xxxxxxxxxxwwwvvur....
(PID.TID 0000.0001)     23 ............xxxyyyz.xyyy...xxx..yyyyzzyyyyyyyyxxxxxxxxxwwwwwxxxwwwwwx....vwxxxxwwwwwvu....
(PID.TID 0000.0001)     22 w...........xxyyyzyyyyyz...xx.yyzzzzzzzzzzzzzyyzyyyyyyxxwwxxxxwvvvwwxw......yyyyxxxxxxwxxw
(PID.TID 0000.0001)     21 xxx........xxxxyyzzzzzzz+.....zyzzzzzzz++zzzzyyyyyyyyxxwvvwwwwvvvvvvvu........yyyyyyyyyxxx
(PID.TID 0000.0001)     20 xww.......xyyyyxyyzzzzzz+......z.zzzzz+++zzzzzzyyyyyxxxxwvwxwvuuuuuuut.........yyyyxxxxwww
(PID.TID 0000.0001)     19 vvv.......yyyyxwwxyzyyzzzzz...zzz.....++++++z++z+zzzyyyyxxxxwwvvvvvvvu...........yyxxxwwww
(PID.TID 0000.0001)     18 uut.......zzyyywwxyzyyyyzzyzzzzzz...z+z++++zz+++++++zzzyyyyxxwwwvvvvvtt..........yyxxwvvwv
(PID.TID 0000.0001)     17 uus.......z.yyyyyyxyzzyyyyyyyzz.....yzzzzzzzzzzzzzzzzzzyyyyxxwwvuuvvuut.........yyyxxwttvu
(PID.TID 0000.0001)     16 utr......yy.zyyyyxxxxxxxwxxxxy.......yyyyyyyyyyyyyyyyyyyyyyyxxwvvvuuutts........xyyyxwvuuu
(PID.TID 0000.0001)     15 ttrr....xxx.xxxwxwwwwvwwvvvww.........xwxxxxxxxxxxxxxxxxxyyyxwwwvvuttssrr......wxxxxxwwvuu
(PID.TID 0000.0001)     14 ttsq....xyxwwxwvwwwvutuuuuuuu.........wwvwwwwvwvvwwwvwvvwwwwwwvvvuuutssrr.....vwwwwwwwvvvu
(PID.TID 0000.0001)     13 tttr....wwwvvvtttuuuutttssttt.........vvvuuuuuuutttttuuuuuvwwwuuuttttssrr....uvvvvvvvvvvut
(PID.TID 0000.0001)     12 sssssstttutssssrrrrrstrqqrrssqqrrq....uuttssssrrrrrrrrrrrstttssssrssrrqp.....uuuttssttssss
(PID.TID 0000.0001)     11 poprsssrqqqqqrqppooopqpoppppppppppp..sssrrr.rqpppqqqqppppqqqoppqqqqrqqpp....prsrqqqqqppppq
(PID.TID 0000.0001)     10 lllmoooonmnnmnnnnmmmmmmlmmlllmnnnnon.qqqppp.ppppppooooooooonmnnnonnooooo..nmoponnmnnnnnmll
(PID.TID 0000.0001)      9 ihhiiiihhhhhhiiihiiiiihhhiiiijjkkmnllnnnnn.mmmmnnnnmmmmnnmmlklllllklllll.mllmmllkjiijjihhi
(PID.TID 0000.0001)      8 eeeeeeeedefgggffeeffggffffggghiiiijjijklklkkkkkkkklllkkkkjjiiijkjjjjjjkj.kkjjiihggffffedde
(PID.TID 0000.0001)      7 cccccddeedddefeddddddddddefeefffffgggghiiiiiijjjihhgggghhhhhghhhhhhhiiiihiihhgfeddddddcccc
(PID.TID 0000.0001)      6 abbcccddcccccdddddccdddddddccddddddeeeeffggggghhgeddddddeeeeeeefggggghggggffeedccbbbbbbbba
(PID.TID 0000.0001)      5 bbbcccccccccccccccccccccbbccccdddddddcccddeeddeedcbbbbbbccccccdddeeeeeddddddccbbbbaaaaaaab
(PID.TID 0000.0001)      4 bbbbbbbaaabbbbbbbbbbbbaabbabbbbcbbbbbbbbbbbbbbbbbbbabbaaabbbbbbbbbbbbbbbbb..a--aaabbbaaabb
(PID.TID 0000.0001)      3 bbbbaaa-a-............................bbaaaaaaaaaaaaaaaaaaaaaaaaaaaaaaaab..aaaaaaaabbbaaaa
(PID.TID 0000.0001)      2 ..........................................baaaaaaaaaaaa-------aa..aaaa.....aaaaaaaaaaaa...
(PID.TID 0000.0001)      1 ..........................................................................................
(PID.TID 0000.0001) // =======================================================
(PID.TID 0000.0001) // END OF FIELD                                          =
(PID.TID 0000.0001) // =======================================================
(PID.TID 0000.0001) 
(PID.TID 0000.0001)  MDSREADFIELD: opening global file: lev_s.bin
(PID.TID 0000.0001) // =======================================================
(PID.TID 0000.0001) // Field Initial Salinity at iteration          1
(PID.TID 0000.0001) // CMIN =          2.975276947021484E+01
(PID.TID 0000.0001) // CMAX =          3.747562789916992E+01
(PID.TID 0000.0001) // CINT =          2.860317936650029E-01
(PID.TID 0000.0001) // SYMBOLS (CMIN->CMAX): -abcdefghijklmnopqrstuvwxyz+
(PID.TID 0000.0001) //                  0.0: .
(PID.TID 0000.0001) // RANGE I (Lo:Hi:Step):(   1:  90:   1)
(PID.TID 0000.0001) // RANGE J (Lo:Hi:Step):(  40:   1:  -1)
(PID.TID 0000.0001) // RANGE K (Lo:Hi:Step):(   1:   1:   1)
(PID.TID 0000.0001) // =======================================================
(PID.TID 0000.0001) K =   1
(PID.TID 0000.0001)                I=10      I=20      I=30      I=40      I=50      I=60      I=70      I=80      I=90
(PID.TID 0000.0001) |--J--|123456789|123456789|123456789|123456789|123456789|123456789|123456789|123456789|123456789|
(PID.TID 0000.0001)     40 qrrrr.oonnooopqtutt..................................................................mnnop
(PID.TID 0000.0001)     39 rssrrrrrrrqqpn...ut.....................................................mmmm........opqqqr
(PID.TID 0000.0001)     38 ssrrqqqqrrqpo...........................................................lkkll......onoqrrs
(PID.TID 0000.0001)     37 ssr..................................................................hg...lln...qppqr.rrrs
(PID.TID 0000.0001)     36 rr.........................................lkji....................feeegikmoop.pqrssssssss
(PID.TID 0000.0001)     35 rr.................................kkkk..lllllki...jijjj...........aa-....opqrrrrrrrssttss
(PID.TID 0000.0001)     34 ...................................jlll.kklllllk.ijkkkjih..................hlpqrqrrsstts..
(PID.TID 0000.0001)     33 ....................................iklkkkkkkkkkjkkjjjjjjii.................jmprrsstttttt.
(PID.TID 0000.0001)     32 ....................................iklllkllllllllkkkkkkkji................gilpstuuttuuut.
(PID.TID 0000.0001)     31 ....................................lmnonnnnoooonnmmmmllkjj..............loopqtvvvuuuuuu..
(PID.TID 0000.0001)     30 ...................................pppppppqqqqpppoooonnmlkk............ptvxwwvvwvvvvvvvu..
(PID.TID 0000.0001)     29 .................................pqqrqqqqqqrrrqqppqqqpponmll...........vxxxxxxwwwwwxwwxw..
(PID.TID 0000.0001)     28 ...............................prrrrrqqrrrrrsrrsrssssssrqonmm.........wxxxxxxxyyyyyyyyxx..
(PID.TID 0000.0001)     27 ..............xx..............prrrrrrrrrssssssstttssssssrqpoop...uwww.wwxxxyyy++zzzzyy....
(PID.TID 0000.0001)     26 ..............wxx...........ppqrrrrrrsssrrstsstttssrrrrrrrqppqqp.wwwvvwwwwwxyy+++zzyxw....
(PID.TID 0000.0001)     25 ..............wxxv...kkk...ooopqrrrrrssrrrrrrrssssqqpppppppppppoo...vvutuuvvwxyyyxxvvu....
(PID.TID 0000.0001)     24 ............uvvwwur.lmlk...nmm.pqqqqrrrrrqqqqrrqqrpppppooooonmmmnooo.uuuuuuttuvvvuvuut....
(PID.TID 0000.0001)     23 ............vvuvtqp.lmml...mln..ppppqpqppppppqpppppppppqppponnnnnoopm....xvuuuvvvvuuut....
(PID.TID 0000.0001)     22 r...........vuttsqqpnppn...mm.oppqqrrqqqqqqppppqqrrrqqqrrppppoopooomjj......uuvvvvvuttssrr
(PID.TID 0000.0001)     21 qmm........ttsssssssrsqon.....opqqqqqqqrrrrqqqssssssrrrrrrrrpqqqppomll........tvvvvuttssrr
(PID.TID 0000.0001)     20 sqq.......sttssrrsrrrrpol......p.qrqpqrrrrrrrstttttsssrrsssrqrrrrqqqpo.........wwwvvvuuutt
(PID.TID 0000.0001)     19 tsr.......ssssrrrrpppppnmmm...oqq.....qrqqsrrstttuuuttssttssrrssrrrrqq...........wwwvuvvvv
(PID.TID 0000.0001)     18 wut.......ssrrrrrqppppppppoooorrr...poqqqprrrttttuuutuuuuuutttttttutsss..........yyxwwxwxx
(PID.TID 0000.0001)     17 wwu.......s.rrrrrrqppppqqqqqqqr.....rrsrqrsssuusrtuuuvvvwwvvvuuuuutttss.........xyzyyyyxxx
(PID.TID 0000.0001)     16 vvt......ss.qrrssrqrqpqrrrrrrr.......ssrrstsstusrsuuuvwwwwxxwwvvvuttttsr........yz+zzzxwww
(PID.TID 0000.0001)     15 utss....stt.rrssstttsrrsrstsr.........ssstttssttsuuttuvvvvwxwwwwwuttsssrr......xyyyyxyyxwv
(PID.TID 0000.0001)     14 utts....sstrrssstuuuuuuuuuutt.........stttuutttttttuttttttuvvvvvvutsrqrrr.....vxxwwwwxwvwv
(PID.TID 0000.0001)     13 uuut....ttttttttuuuuuvtuuuuuu.........ttttuutttttttuutsssstttttstsqrqqppp....uwwwvuvvvutvv
(PID.TID 0000.0001)     12 ttttttttttttttttttttttssuuuuutuuut....tttttttttttsssssrrrrrrrqqqqqppppoo.....rvvuuttttttuu
(PID.TID 0000.0001)     11 rqsttttttttuuttttsssssrrstttttttsss..ttttts.tsssrrrrqqqqqppppoonnooooooo....oruttttsssrqrs
(PID.TID 0000.0001)     10 pppqrssrqqrqpqrssrrqqqqqqrrrrrrrrrrs.sssssr.rssrrqqpppppppooooonnnoooonn..moqrrrqqqqqqqqqq
(PID.TID 0000.0001)      9 oonooooooooonnnooooooooooppppppqqqqqrrrqrq.pppqqqqqppppppppppoooooooooll.lmoqqqqppooooopoo
(PID.TID 0000.0001)      8 nnnoonooooooonnnnnnnoooonoonoooppopqqqqqqqppopppqqqpppppppppppppppooopon.lnopppoooonnnnooo
(PID.TID 0000.0001)      7 ooooooooooopponnnooooooonnnnnonnooooooooopppppppoooooooooopppppppppoopqnnmnoooonnnonnnnnno
(PID.TID 0000.0001)      6 oooonnoonnnnooooooooooooonnnnnnnnnnnnnnnnoooopppooooooooooooooppppppppppoooooooonnnnnmnnnn
(PID.TID 0000.0001)      5 oooonnnnnnnnnnnnnnnnnoooooonnnnnnonnnnnnnnnoooooooooooonnnnnnooooooopoooonoooonnnnnnnooooo
(PID.TID 0000.0001)      4 oooonnnooonnnnnnnnnnnnnnoooooonnnooooonnnooooooooppponnnnmmmnnnnmnnoonnnnn..nnnooooooooooo
(PID.TID 0000.0001)      3 ooonnnnnnn............................nnoooooonnooooonnnnnnnoonnnnnnnnmmm..ooopooooooooooo
(PID.TID 0000.0001)      2 ..........................................pppooooonnnnnnoooppppo..nnnn.....qqqpppoooooo...
(PID.TID 0000.0001)      1 ..........................................................................................
(PID.TID 0000.0001) // =======================================================
(PID.TID 0000.0001) // END OF FIELD                                          =
(PID.TID 0000.0001) // =======================================================
(PID.TID 0000.0001) 
(PID.TID 0000.0001) Start initial hydrostatic pressure computation
(PID.TID 0000.0001) Pressure is predetermined for buoyancyRelation OCEANIC
(PID.TID 0000.0001) 
(PID.TID 0000.0001)  MDSREADFIELD: opening file: xx_theta.0000000000.001.001.data
(PID.TID 0000.0001)  MDSREADFIELD: opening file: xx_salt.0000000000.001.001.data
(PID.TID 0000.0001)  MDSREADFIELD: opening file: xx_diffkr.0000000000.001.001.data
(PID.TID 0000.0001)  MDSREADFIELD: opening global file: trenberth_taux.bin
(PID.TID 0000.0001)  MDSREADFIELD: opening global file: trenberth_tauy.bin
(PID.TID 0000.0001)  MDSREADFIELD: opening global file: ncep_qnet.bin
(PID.TID 0000.0001)  MDSREADFIELD: opening global file: lev_sst.bin
(PID.TID 0000.0001)  MDSREADFIELD: opening global file: lev_sss.bin
(PID.TID 0000.0001) // =======================================================
(PID.TID 0000.0001) // Model current state
(PID.TID 0000.0001) // =======================================================
(PID.TID 0000.0001) 
(PID.TID 0000.0001) // =======================================================
(PID.TID 0000.0001) // Begin MONITOR dynamic field statistics
(PID.TID 0000.0001) // =======================================================
(PID.TID 0000.0001) %MON time_tsnumber                =                     0
(PID.TID 0000.0001) %MON time_secondsf                =   0.0000000000000E+00
(PID.TID 0000.0001) %MON dynstat_eta_max              =   0.0000000000000E+00
(PID.TID 0000.0001) %MON dynstat_eta_min              =   0.0000000000000E+00
(PID.TID 0000.0001) %MON dynstat_eta_mean             =   0.0000000000000E+00
(PID.TID 0000.0001) %MON dynstat_eta_sd               =   0.0000000000000E+00
(PID.TID 0000.0001) %MON dynstat_eta_del2             =   0.0000000000000E+00
(PID.TID 0000.0001) %MON dynstat_uvel_max             =   0.0000000000000E+00
(PID.TID 0000.0001) %MON dynstat_uvel_min             =   0.0000000000000E+00
(PID.TID 0000.0001) %MON dynstat_uvel_mean            =   0.0000000000000E+00
(PID.TID 0000.0001) %MON dynstat_uvel_sd              =   0.0000000000000E+00
(PID.TID 0000.0001) %MON dynstat_uvel_del2            =   0.0000000000000E+00
(PID.TID 0000.0001) %MON dynstat_vvel_max             =   0.0000000000000E+00
(PID.TID 0000.0001) %MON dynstat_vvel_min             =   0.0000000000000E+00
(PID.TID 0000.0001) %MON dynstat_vvel_mean            =   0.0000000000000E+00
(PID.TID 0000.0001) %MON dynstat_vvel_sd              =   0.0000000000000E+00
(PID.TID 0000.0001) %MON dynstat_vvel_del2            =   0.0000000000000E+00
(PID.TID 0000.0001) %MON dynstat_wvel_max             =   0.0000000000000E+00
(PID.TID 0000.0001) %MON dynstat_wvel_min             =   0.0000000000000E+00
(PID.TID 0000.0001) %MON dynstat_wvel_mean            =   0.0000000000000E+00
(PID.TID 0000.0001) %MON dynstat_wvel_sd              =   0.0000000000000E+00
(PID.TID 0000.0001) %MON dynstat_wvel_del2            =   0.0000000000000E+00
(PID.TID 0000.0001) %MON dynstat_theta_max            =   2.9733388900757E+01
(PID.TID 0000.0001) %MON dynstat_theta_min            =  -1.9000000000000E+00
(PID.TID 0000.0001) %MON dynstat_theta_mean           =   3.6197074460104E+00
(PID.TID 0000.0001) %MON dynstat_theta_sd             =   4.4174614696860E+00
(PID.TID 0000.0001) %MON dynstat_theta_del2           =   1.5097284706624E-01
(PID.TID 0000.0001) %MON dynstat_salt_max             =   3.7475627899170E+01
(PID.TID 0000.0001) %MON dynstat_salt_min             =   2.9752769470215E+01
(PID.TID 0000.0001) %MON dynstat_salt_mean            =   3.4718006161475E+01
(PID.TID 0000.0001) %MON dynstat_salt_sd              =   2.9628819587990E-01
(PID.TID 0000.0001) %MON dynstat_salt_del2            =   2.6251884861846E-02
(PID.TID 0000.0001) %MON advcfl_uvel_max              =   0.0000000000000E+00
(PID.TID 0000.0001) %MON advcfl_vvel_max              =   0.0000000000000E+00
(PID.TID 0000.0001) %MON advcfl_wvel_max              =   0.0000000000000E+00
(PID.TID 0000.0001) %MON advcfl_W_hf_max              =   0.0000000000000E+00
(PID.TID 0000.0001) %MON pe_b_mean                    =   0.0000000000000E+00
(PID.TID 0000.0001) %MON ke_max                       =   0.0000000000000E+00
(PID.TID 0000.0001) %MON ke_mean                      =   0.0000000000000E+00
(PID.TID 0000.0001) %MON ke_vol                       =   1.3226782436723E+18
(PID.TID 0000.0001) %MON vort_r_min                   =   0.0000000000000E+00
(PID.TID 0000.0001) %MON vort_r_max                   =   0.0000000000000E+00
(PID.TID 0000.0001) %MON vort_a_mean                  =  -2.5205769728595E-05
(PID.TID 0000.0001) %MON vort_a_sd                    =   7.3403301351718E-05
(PID.TID 0000.0001) %MON vort_p_mean                  =  -3.1758669979758E-05
(PID.TID 0000.0001) %MON vort_p_sd                    =   1.3126616755304E-04
(PID.TID 0000.0001) %MON surfExpan_theta_mean         =   0.0000000000000E+00
(PID.TID 0000.0001) %MON surfExpan_salt_mean          =   0.0000000000000E+00
(PID.TID 0000.0001) // =======================================================
(PID.TID 0000.0001) // End MONITOR dynamic field statistics
(PID.TID 0000.0001) // =======================================================
 S/R EXTERNAL_FIELDS_LOAD: Reading new data  0. 0
(PID.TID 0000.0001)  MDSREADFIELD: opening global file: trenberth_taux.bin
(PID.TID 0000.0001)  MDSREADFIELD: opening global file: trenberth_taux.bin
(PID.TID 0000.0001)  MDSREADFIELD: opening global file: trenberth_tauy.bin
(PID.TID 0000.0001)  MDSREADFIELD: opening global file: trenberth_tauy.bin
(PID.TID 0000.0001)  MDSREADFIELD: opening global file: ncep_qnet.bin
(PID.TID 0000.0001)  MDSREADFIELD: opening global file: ncep_qnet.bin
(PID.TID 0000.0001)  MDSREADFIELD: opening global file: lev_sst.bin
(PID.TID 0000.0001)  MDSREADFIELD: opening global file: lev_sst.bin
(PID.TID 0000.0001)  MDSREADFIELD: opening global file: lev_sss.bin
(PID.TID 0000.0001)  MDSREADFIELD: opening global file: lev_sss.bin
time,SST,SSS,fu,fv,Q,E-P,i0,i1,a,b =   0.0000E+00  5.3151E-02  3.4364E+01 -4.0500E-02 -6.3753E-02  2.6510E+02  0.0000E+00    12     1  5.0000E-01  5.0000E-01
time,fu0,fu1,fu =   0.0000E+00 -4.5368E-02 -3.5633E-02 -4.0500E-02  5.0000E-01  5.0000E-01
(PID.TID 0000.0001)  MDSREADFIELD: opening file: xx_tauu.0000000000.001.001.data
(PID.TID 0000.0001)  MDSREADFIELD: opening file: xx_tauv.0000000000.001.001.data
(PID.TID 0000.0001)  MDSREADFIELD: opening file: xx_sflux.0000000000.001.001.data
(PID.TID 0000.0001)  MDSREADFIELD: opening file: xx_hflux.0000000000.001.001.data
 cg2d: Sum(rhs),rhsMax =  -5.55111512312578E-17  2.51126027825716E+00
(PID.TID 0000.0001)                    cg2d_init_res =    6.25921681386421E+00
(PID.TID 0000.0001)                       cg2d_iters =    26
(PID.TID 0000.0001)                         cg2d_res =    4.96600362134565E-14
(PID.TID 0000.0001) // =======================================================
(PID.TID 0000.0001) // Begin MONITOR dynamic field statistics
(PID.TID 0000.0001) // =======================================================
(PID.TID 0000.0001) %MON time_tsnumber                =                     1
(PID.TID 0000.0001) %MON time_secondsf                =   4.3200000000000E+04
(PID.TID 0000.0001) %MON dynstat_eta_max              =   1.7542736336611E-01
(PID.TID 0000.0001) %MON dynstat_eta_min              =  -1.1671969011691E-01
(PID.TID 0000.0001) %MON dynstat_eta_mean             =  -5.4701959637713E-19
(PID.TID 0000.0001) %MON dynstat_eta_sd               =   2.6179446288726E-02
(PID.TID 0000.0001) %MON dynstat_eta_del2             =   1.1613844834047E-02
(PID.TID 0000.0001) %MON dynstat_uvel_max             =   8.0529522933638E-03
(PID.TID 0000.0001) %MON dynstat_uvel_min             =  -7.6333376275251E-03
(PID.TID 0000.0001) %MON dynstat_uvel_mean            =  -1.5724924378892E-04
(PID.TID 0000.0001) %MON dynstat_uvel_sd              =   1.2330586043077E-03
(PID.TID 0000.0001) %MON dynstat_uvel_del2            =   4.1962637037880E-04
(PID.TID 0000.0001) %MON dynstat_vvel_max             =   1.8131688035214E-02
(PID.TID 0000.0001) %MON dynstat_vvel_min             =  -1.1104627631651E-02
(PID.TID 0000.0001) %MON dynstat_vvel_mean            =   9.0141410178299E-04
(PID.TID 0000.0001) %MON dynstat_vvel_sd              =   3.3812266173647E-03
(PID.TID 0000.0001) %MON dynstat_vvel_del2            =   5.2106646279971E-04
(PID.TID 0000.0001) %MON dynstat_wvel_max             =   1.5731556153468E-04
(PID.TID 0000.0001) %MON dynstat_wvel_min             =  -1.0461247926497E-04
(PID.TID 0000.0001) %MON dynstat_wvel_mean            =  -4.1697565213766E-22
(PID.TID 0000.0001) %MON dynstat_wvel_sd              =   1.6753162020099E-05
(PID.TID 0000.0001) %MON dynstat_wvel_del2            =   8.7872724746924E-06
(PID.TID 0000.0001) %MON dynstat_theta_max            =   2.9714151773427E+01
(PID.TID 0000.0001) %MON dynstat_theta_min            =  -1.9006688327720E+00
(PID.TID 0000.0001) %MON dynstat_theta_mean           =   3.6192176415626E+00
(PID.TID 0000.0001) %MON dynstat_theta_sd             =   4.4160464195673E+00
(PID.TID 0000.0001) %MON dynstat_theta_del2           =   1.5011441112097E-01
(PID.TID 0000.0001) %MON dynstat_salt_max             =   3.7470483222390E+01
(PID.TID 0000.0001) %MON dynstat_salt_min             =   2.9754996047611E+01
(PID.TID 0000.0001) %MON dynstat_salt_mean            =   3.4717966947509E+01
(PID.TID 0000.0001) %MON dynstat_salt_sd              =   2.9615546782071E-01
(PID.TID 0000.0001) %MON dynstat_salt_del2            =   2.6383451197791E-02
(PID.TID 0000.0001) %MON advcfl_uvel_max              =   2.7847836032001E-03
(PID.TID 0000.0001) %MON advcfl_vvel_max              =   1.7613480939636E-03
(PID.TID 0000.0001) %MON advcfl_wvel_max              =   2.5261540324720E-01
(PID.TID 0000.0001) %MON advcfl_W_hf_max              =   2.5633166678463E-01
(PID.TID 0000.0001) %MON pe_b_mean                    =   8.7700508930758E-07
(PID.TID 0000.0001) %MON ke_max                       =   1.2189599970725E-04
(PID.TID 0000.0001) %MON ke_mean                      =   6.1994154140018E-06
(PID.TID 0000.0001) %MON ke_vol                       =   1.3226782436723E+18
(PID.TID 0000.0001) %MON vort_r_min                   =  -6.1330304033603E-08
(PID.TID 0000.0001) %MON vort_r_max                   =   6.1580160380456E-08
(PID.TID 0000.0001) %MON vort_a_mean                  =  -2.5205769360242E-05
(PID.TID 0000.0001) %MON vort_a_sd                    =   7.3403259512187E-05
(PID.TID 0000.0001) %MON vort_p_mean                  =  -3.1758669515642E-05
(PID.TID 0000.0001) %MON vort_p_sd                    =   1.3126622607369E-04
(PID.TID 0000.0001) %MON surfExpan_theta_mean         =   4.5922983518276E-05
(PID.TID 0000.0001) %MON surfExpan_salt_mean          =   3.4898921969500E-06
(PID.TID 0000.0001) // =======================================================
(PID.TID 0000.0001) // End MONITOR dynamic field statistics
(PID.TID 0000.0001) // =======================================================
time,SST,SSS,fu,fv,Q,E-P,i0,i1,a,b =   4.3200E+04  8.3327E-02  3.4375E+01 -4.0338E-02 -6.3536E-02  2.6512E+02  0.0000E+00    12     1  5.1667E-01  4.8333E-01
time,fu0,fu1,fu =   4.3200E+04 -4.5368E-02 -3.5633E-02 -4.0338E-02  5.1667E-01  4.8333E-01
 cg2d: Sum(rhs),rhsMax =   3.91423005119407E-14  4.88048471044203E+00
(PID.TID 0000.0001)                    cg2d_init_res =    3.38567972215955E+00
(PID.TID 0000.0001)                       cg2d_iters =    26
(PID.TID 0000.0001)                         cg2d_res =    3.27664062324749E-14
(PID.TID 0000.0001) // =======================================================
(PID.TID 0000.0001) // Begin MONITOR dynamic field statistics
(PID.TID 0000.0001) // =======================================================
(PID.TID 0000.0001) %MON time_tsnumber                =                     2
(PID.TID 0000.0001) %MON time_secondsf                =   8.6400000000000E+04
(PID.TID 0000.0001) %MON dynstat_eta_max              =   3.6642075205993E-01
(PID.TID 0000.0001) %MON dynstat_eta_min              =  -2.5542812926271E-01
(PID.TID 0000.0001) %MON dynstat_eta_mean             =   2.2419358479912E-18
(PID.TID 0000.0001) %MON dynstat_eta_sd               =   5.9802418761181E-02
(PID.TID 0000.0001) %MON dynstat_eta_del2             =   2.2181086534573E-02
(PID.TID 0000.0001) %MON dynstat_uvel_max             =   1.8742617413914E-02
(PID.TID 0000.0001) %MON dynstat_uvel_min             =  -1.7008757434475E-02
(PID.TID 0000.0001) %MON dynstat_uvel_mean            =  -6.1812257629864E-04
(PID.TID 0000.0001) %MON dynstat_uvel_sd              =   2.0365423220518E-03
(PID.TID 0000.0001) %MON dynstat_uvel_del2            =   7.7147833026765E-04
(PID.TID 0000.0001) %MON dynstat_vvel_max             =   3.3070086706884E-02
(PID.TID 0000.0001) %MON dynstat_vvel_min             =  -1.7823710906559E-02
(PID.TID 0000.0001) %MON dynstat_vvel_mean            =   1.7749223228883E-03
(PID.TID 0000.0001) %MON dynstat_vvel_sd              =   6.2103816703129E-03
(PID.TID 0000.0001) %MON dynstat_vvel_del2            =   9.3438725798167E-04
(PID.TID 0000.0001) %MON dynstat_wvel_max             =   2.0185420699784E-04
(PID.TID 0000.0001) %MON dynstat_wvel_min             =  -1.4619082137608E-04
(PID.TID 0000.0001) %MON dynstat_wvel_mean            =   6.0942181096964E-22
(PID.TID 0000.0001) %MON dynstat_wvel_sd              =   2.3946387307589E-05
(PID.TID 0000.0001) %MON dynstat_wvel_del2            =   9.7964858752705E-06
(PID.TID 0000.0001) %MON dynstat_theta_max            =   2.9695250203754E+01
(PID.TID 0000.0001) %MON dynstat_theta_min            =  -1.9046704676167E+00
(PID.TID 0000.0001) %MON dynstat_theta_mean           =   3.6180451399342E+00
(PID.TID 0000.0001) %MON dynstat_theta_sd             =   4.4133958758506E+00
(PID.TID 0000.0001) %MON dynstat_theta_del2           =   1.4858768096534E-01
(PID.TID 0000.0001) %MON dynstat_salt_max             =   3.7465922104459E+01
(PID.TID 0000.0001) %MON dynstat_salt_min             =   2.9758319089739E+01
(PID.TID 0000.0001) %MON dynstat_salt_mean            =   3.4717870437881E+01
(PID.TID 0000.0001) %MON dynstat_salt_sd              =   2.9608252733665E-01
(PID.TID 0000.0001) %MON dynstat_salt_del2            =   2.6460099492167E-02
(PID.TID 0000.0001) %MON advcfl_uvel_max              =   5.1989943937369E-03
(PID.TID 0000.0001) %MON advcfl_vvel_max              =   3.2124937333611E-03
(PID.TID 0000.0001) %MON advcfl_wvel_max              =   2.7503047971909E-01
(PID.TID 0000.0001) %MON advcfl_W_hf_max              =   2.8566390214195E-01
(PID.TID 0000.0001) %MON pe_b_mean                    =   4.5763443912485E-06
(PID.TID 0000.0001) %MON ke_max                       =   4.0262905102485E-04
(PID.TID 0000.0001) %MON ke_mean                      =   2.0787430131595E-05
(PID.TID 0000.0001) %MON ke_vol                       =   1.3226782436723E+18
(PID.TID 0000.0001) %MON vort_r_min                   =  -1.0591158621090E-07
(PID.TID 0000.0001) %MON vort_r_max                   =   1.2116719174023E-07
(PID.TID 0000.0001) %MON vort_a_mean                  =  -2.5205769260570E-05
(PID.TID 0000.0001) %MON vort_a_sd                    =   7.3403162844144E-05
(PID.TID 0000.0001) %MON vort_p_mean                  =  -3.1758669390057E-05
(PID.TID 0000.0001) %MON vort_p_sd                    =   1.3126606566472E-04
(PID.TID 0000.0001) %MON surfExpan_theta_mean         =   8.3423185188438E-05
(PID.TID 0000.0001) %MON surfExpan_salt_mean          =   6.6892886135282E-06
(PID.TID 0000.0001) // =======================================================
(PID.TID 0000.0001) // End MONITOR dynamic field statistics
(PID.TID 0000.0001) // =======================================================
time,SST,SSS,fu,fv,Q,E-P,i0,i1,a,b =   8.6400E+04  1.1350E-01  3.4387E+01 -4.0176E-02 -6.3320E-02  2.6514E+02  0.0000E+00    12     1  5.3333E-01  4.6667E-01
time,fu0,fu1,fu =   8.6400E+04 -4.5368E-02 -3.5633E-02 -4.0176E-02  5.3333E-01  4.6667E-01
 cg2d: Sum(rhs),rhsMax =  -2.95388713489331E-14  6.23803641968524E+00
(PID.TID 0000.0001)                    cg2d_init_res =    2.21964829496655E+00
(PID.TID 0000.0001)                       cg2d_iters =    26
(PID.TID 0000.0001)                         cg2d_res =    2.85735391669611E-14
(PID.TID 0000.0001) // =======================================================
(PID.TID 0000.0001) // Begin MONITOR dynamic field statistics
(PID.TID 0000.0001) // =======================================================
(PID.TID 0000.0001) %MON time_tsnumber                =                     3
(PID.TID 0000.0001) %MON time_secondsf                =   1.2960000000000E+05
(PID.TID 0000.0001) %MON dynstat_eta_max              =   5.0447743753974E-01
(PID.TID 0000.0001) %MON dynstat_eta_min              =  -3.8122928051878E-01
(PID.TID 0000.0001) %MON dynstat_eta_mean             =  -1.4095095432089E-17
(PID.TID 0000.0001) %MON dynstat_eta_sd               =   9.2514850105551E-02
(PID.TID 0000.0001) %MON dynstat_eta_del2             =   2.7904912927161E-02
(PID.TID 0000.0001) %MON dynstat_uvel_max             =   3.0748714608840E-02
(PID.TID 0000.0001) %MON dynstat_uvel_min             =  -2.9887612427394E-02
(PID.TID 0000.0001) %MON dynstat_uvel_mean            =  -1.2347562969871E-03
(PID.TID 0000.0001) %MON dynstat_uvel_sd              =   2.8304409526293E-03
(PID.TID 0000.0001) %MON dynstat_uvel_del2            =   1.1349446985636E-03
(PID.TID 0000.0001) %MON dynstat_vvel_max             =   4.3827495839395E-02
(PID.TID 0000.0001) %MON dynstat_vvel_min             =  -2.5545918428573E-02
(PID.TID 0000.0001) %MON dynstat_vvel_mean            =   2.5728334443542E-03
(PID.TID 0000.0001) %MON dynstat_vvel_sd              =   8.5401776485974E-03
(PID.TID 0000.0001) %MON dynstat_vvel_del2            =   1.3456991625524E-03
(PID.TID 0000.0001) %MON dynstat_wvel_max             =   1.9966320236139E-04
(PID.TID 0000.0001) %MON dynstat_wvel_min             =  -1.7215302213926E-04
(PID.TID 0000.0001) %MON dynstat_wvel_mean            =   8.9533129388783E-22
(PID.TID 0000.0001) %MON dynstat_wvel_sd              =   2.6852357579061E-05
(PID.TID 0000.0001) %MON dynstat_wvel_del2            =   8.6463595996792E-06
(PID.TID 0000.0001) %MON dynstat_theta_max            =   2.9693876913640E+01
(PID.TID 0000.0001) %MON dynstat_theta_min            =  -1.9165848424516E+00
(PID.TID 0000.0001) %MON dynstat_theta_mean           =   3.6166050090814E+00
(PID.TID 0000.0001) %MON dynstat_theta_sd             =   4.4102951305844E+00
(PID.TID 0000.0001) %MON dynstat_theta_del2           =   1.4734398402992E-01
(PID.TID 0000.0001) %MON dynstat_salt_max             =   3.7461480469125E+01
(PID.TID 0000.0001) %MON dynstat_salt_min             =   2.9762089295090E+01
(PID.TID 0000.0001) %MON dynstat_salt_mean            =   3.4717748756381E+01
(PID.TID 0000.0001) %MON dynstat_salt_sd              =   2.9607393342028E-01
(PID.TID 0000.0001) %MON dynstat_salt_del2            =   2.6366190055196E-02
(PID.TID 0000.0001) %MON advcfl_uvel_max              =   6.3252572287560E-03
(PID.TID 0000.0001) %MON advcfl_vvel_max              =   4.2574897665345E-03
(PID.TID 0000.0001) %MON advcfl_wvel_max              =   2.0873391234654E-01
(PID.TID 0000.0001) %MON advcfl_W_hf_max              =   2.1768957936022E-01
(PID.TID 0000.0001) %MON pe_b_mean                    =   1.0952268928718E-05
(PID.TID 0000.0001) %MON ke_max                       =   7.4676338471534E-04
(PID.TID 0000.0001) %MON ke_mean                      =   4.0047683860163E-05
(PID.TID 0000.0001) %MON ke_vol                       =   1.3226782436723E+18
(PID.TID 0000.0001) %MON vort_r_min                   =  -1.5301597332276E-07
(PID.TID 0000.0001) %MON vort_r_max                   =   1.7605569374822E-07
(PID.TID 0000.0001) %MON vort_a_mean                  =  -2.5205769243887E-05
(PID.TID 0000.0001) %MON vort_a_sd                    =   7.3403039694997E-05
(PID.TID 0000.0001) %MON vort_p_mean                  =  -3.1758669369038E-05
(PID.TID 0000.0001) %MON vort_p_sd                    =   1.3126579822880E-04
(PID.TID 0000.0001) %MON surfExpan_theta_mean         =   1.1255489043731E-04
(PID.TID 0000.0001) %MON surfExpan_salt_mean          =   9.2738972938459E-06
(PID.TID 0000.0001) // =======================================================
(PID.TID 0000.0001) // End MONITOR dynamic field statistics
(PID.TID 0000.0001) // =======================================================
time,SST,SSS,fu,fv,Q,E-P,i0,i1,a,b =   1.2960E+05  1.4368E-01  3.4399E+01 -4.0014E-02 -6.3103E-02  2.6516E+02  0.0000E+00    12     1  5.5000E-01  4.5000E-01
time,fu0,fu1,fu =   1.2960E+05 -4.5368E-02 -3.5633E-02 -4.0014E-02  5.5000E-01  4.5000E-01
 cg2d: Sum(rhs),rhsMax =   2.13370987545147E-15  6.79014299228628E+00
(PID.TID 0000.0001)                    cg2d_init_res =    1.84397147476241E+00
(PID.TID 0000.0001)                       cg2d_iters =    26
(PID.TID 0000.0001)                         cg2d_res =    2.55763763526352E-14
(PID.TID 0000.0001) // =======================================================
(PID.TID 0000.0001) // Begin MONITOR dynamic field statistics
(PID.TID 0000.0001) // =======================================================
(PID.TID 0000.0001) %MON time_tsnumber                =                     4
(PID.TID 0000.0001) %MON time_secondsf                =   1.7280000000000E+05
(PID.TID 0000.0001) %MON dynstat_eta_max              =   5.8744280224194E-01
(PID.TID 0000.0001) %MON dynstat_eta_min              =  -4.9922434947589E-01
(PID.TID 0000.0001) %MON dynstat_eta_mean             =  -2.9083191465011E-17
(PID.TID 0000.0001) %MON dynstat_eta_sd               =   1.2282110297695E-01
(PID.TID 0000.0001) %MON dynstat_eta_del2             =   2.9664530083084E-02
(PID.TID 0000.0001) %MON dynstat_uvel_max             =   4.3275845499344E-02
(PID.TID 0000.0001) %MON dynstat_uvel_min             =  -4.2470479735484E-02
(PID.TID 0000.0001) %MON dynstat_uvel_mean            =  -1.9743370638559E-03
(PID.TID 0000.0001) %MON dynstat_uvel_sd              =   3.7660684359786E-03
(PID.TID 0000.0001) %MON dynstat_uvel_del2            =   1.4942872573249E-03
(PID.TID 0000.0001) %MON dynstat_vvel_max             =   5.0865239701908E-02
(PID.TID 0000.0001) %MON dynstat_vvel_min             =  -3.7807952774019E-02
(PID.TID 0000.0001) %MON dynstat_vvel_mean            =   3.2826065947925E-03
(PID.TID 0000.0001) %MON dynstat_vvel_sd              =   1.0483838912885E-02
(PID.TID 0000.0001) %MON dynstat_vvel_del2            =   1.7640691769299E-03
(PID.TID 0000.0001) %MON dynstat_wvel_max             =   1.9909629511443E-04
(PID.TID 0000.0001) %MON dynstat_wvel_min             =  -2.0243042163513E-04
(PID.TID 0000.0001) %MON dynstat_wvel_mean            =  -7.2896768667760E-22
(PID.TID 0000.0001) %MON dynstat_wvel_sd              =   2.8700892809217E-05
(PID.TID 0000.0001) %MON dynstat_wvel_del2            =   8.2544056753970E-06
(PID.TID 0000.0001) %MON dynstat_theta_max            =   2.9706174523039E+01
(PID.TID 0000.0001) %MON dynstat_theta_min            =  -1.9336756604066E+00
(PID.TID 0000.0001) %MON dynstat_theta_mean           =   3.6149643159956E+00
(PID.TID 0000.0001) %MON dynstat_theta_sd             =   4.4067801043311E+00
(PID.TID 0000.0001) %MON dynstat_theta_del2           =   1.4653318856318E-01
(PID.TID 0000.0001) %MON dynstat_salt_max             =   3.7457127798715E+01
(PID.TID 0000.0001) %MON dynstat_salt_min             =   2.9766149544949E+01
(PID.TID 0000.0001) %MON dynstat_salt_mean            =   3.4717609911401E+01
(PID.TID 0000.0001) %MON dynstat_salt_sd              =   2.9605659687805E-01
(PID.TID 0000.0001) %MON dynstat_salt_del2            =   2.6253513698157E-02
(PID.TID 0000.0001) %MON advcfl_uvel_max              =   8.9567892640044E-03
(PID.TID 0000.0001) %MON advcfl_vvel_max              =   4.9411501468569E-03
(PID.TID 0000.0001) %MON advcfl_wvel_max              =   2.3259770991650E-01
(PID.TID 0000.0001) %MON advcfl_W_hf_max              =   2.3267734139935E-01
(PID.TID 0000.0001) %MON pe_b_mean                    =   1.9303105599586E-05
(PID.TID 0000.0001) %MON ke_max                       =   1.1227686641765E-03
(PID.TID 0000.0001) %MON ke_mean                      =   6.2396007429225E-05
(PID.TID 0000.0001) %MON ke_vol                       =   1.3226782436723E+18
(PID.TID 0000.0001) %MON vort_r_min                   =  -2.0273078629522E-07
(PID.TID 0000.0001) %MON vort_r_max                   =   2.2565138491280E-07
(PID.TID 0000.0001) %MON vort_a_mean                  =  -2.5205769220858E-05
(PID.TID 0000.0001) %MON vort_a_sd                    =   7.3402896496073E-05
(PID.TID 0000.0001) %MON vort_p_mean                  =  -3.1758669340022E-05
(PID.TID 0000.0001) %MON vort_p_sd                    =   1.3126543256174E-04
(PID.TID 0000.0001) %MON surfExpan_theta_mean         =   1.3465270373290E-04
(PID.TID 0000.0001) %MON surfExpan_salt_mean          =   1.1193488425143E-05
(PID.TID 0000.0001) // =======================================================
(PID.TID 0000.0001) // End MONITOR dynamic field statistics
(PID.TID 0000.0001) // =======================================================
time,SST,SSS,fu,fv,Q,E-P,i0,i1,a,b =   1.7280E+05  1.7385E-01  3.4410E+01 -3.9851E-02 -6.2886E-02  2.6519E+02  0.0000E+00    12     1  5.6667E-01  4.3333E-01
time,fu0,fu1,fu =   1.7280E+05 -4.5368E-02 -3.5633E-02 -3.9851E-02  5.6667E-01  4.3333E-01
 cg2d: Sum(rhs),rhsMax =   2.30284541435921E-14  6.92874107573634E+00
(PID.TID 0000.0001)                    cg2d_init_res =    1.75169686694487E+00
(PID.TID 0000.0001)                       cg2d_iters =    26
(PID.TID 0000.0001)                         cg2d_res =    2.59803643936618E-14
(PID.TID 0000.0001) // =======================================================
(PID.TID 0000.0001) // Begin MONITOR dynamic field statistics
(PID.TID 0000.0001) // =======================================================
(PID.TID 0000.0001) %MON time_tsnumber                =                     5
(PID.TID 0000.0001) %MON time_secondsf                =   2.1600000000000E+05
(PID.TID 0000.0001) %MON dynstat_eta_max              =   6.3271088691646E-01
(PID.TID 0000.0001) %MON dynstat_eta_min              =  -5.7992541826956E-01
(PID.TID 0000.0001) %MON dynstat_eta_mean             =  -8.0679140379137E-18
(PID.TID 0000.0001) %MON dynstat_eta_sd               =   1.5134273450659E-01
(PID.TID 0000.0001) %MON dynstat_eta_del2             =   2.9337516395533E-02
(PID.TID 0000.0001) %MON dynstat_uvel_max             =   5.5843085399552E-02
(PID.TID 0000.0001) %MON dynstat_uvel_min             =  -5.3444186272245E-02
(PID.TID 0000.0001) %MON dynstat_uvel_mean            =  -2.8074347701903E-03
(PID.TID 0000.0001) %MON dynstat_uvel_sd              =   4.8414580554966E-03
(PID.TID 0000.0001) %MON dynstat_uvel_del2            =   1.8312472013590E-03
(PID.TID 0000.0001) %MON dynstat_vvel_max             =   5.7021703108535E-02
(PID.TID 0000.0001) %MON dynstat_vvel_min             =  -4.9872134611448E-02
(PID.TID 0000.0001) %MON dynstat_vvel_mean            =   3.8899430030458E-03
(PID.TID 0000.0001) %MON dynstat_vvel_sd              =   1.2085738130825E-02
(PID.TID 0000.0001) %MON dynstat_vvel_del2            =   2.1605252261170E-03
(PID.TID 0000.0001) %MON dynstat_wvel_max             =   2.2883634383913E-04
(PID.TID 0000.0001) %MON dynstat_wvel_min             =  -2.3869685302405E-04
(PID.TID 0000.0001) %MON dynstat_wvel_mean            =   4.6342925998916E-22
(PID.TID 0000.0001) %MON dynstat_wvel_sd              =   3.0511637044732E-05
(PID.TID 0000.0001) %MON dynstat_wvel_del2            =   8.9710499327536E-06
(PID.TID 0000.0001) %MON dynstat_theta_max            =   2.9720537578616E+01
(PID.TID 0000.0001) %MON dynstat_theta_min            =  -1.9541377379685E+00
(PID.TID 0000.0001) %MON dynstat_theta_mean           =   3.6131851661669E+00
(PID.TID 0000.0001) %MON dynstat_theta_sd             =   4.4029374615866E+00
(PID.TID 0000.0001) %MON dynstat_theta_del2           =   1.4585418641289E-01
(PID.TID 0000.0001) %MON dynstat_salt_max             =   3.7452892733702E+01
(PID.TID 0000.0001) %MON dynstat_salt_min             =   2.9770341301067E+01
(PID.TID 0000.0001) %MON dynstat_salt_mean            =   3.4717460594625E+01
(PID.TID 0000.0001) %MON dynstat_salt_sd              =   2.9603661179856E-01
(PID.TID 0000.0001) %MON dynstat_salt_del2            =   2.6165231727922E-02
(PID.TID 0000.0001) %MON advcfl_uvel_max              =   1.1746279775262E-02
(PID.TID 0000.0001) %MON advcfl_vvel_max              =   5.5392011979096E-03
(PID.TID 0000.0001) %MON advcfl_wvel_max              =   2.4450384445045E-01
(PID.TID 0000.0001) %MON advcfl_W_hf_max              =   2.4787864229426E-01
(PID.TID 0000.0001) %MON pe_b_mean                    =   2.9309226255994E-05
(PID.TID 0000.0001) %MON ke_max                       =   1.7055394127414E-03
(PID.TID 0000.0001) %MON ke_mean                      =   8.6598064753849E-05
(PID.TID 0000.0001) %MON ke_vol                       =   1.3226782436723E+18
(PID.TID 0000.0001) %MON vort_r_min                   =  -2.4767825566004E-07
(PID.TID 0000.0001) %MON vort_r_max                   =   2.6903270067911E-07
(PID.TID 0000.0001) %MON vort_a_mean                  =  -2.5205769190759E-05
(PID.TID 0000.0001) %MON vort_a_sd                    =   7.3402738153703E-05
(PID.TID 0000.0001) %MON vort_p_mean                  =  -3.1758669302097E-05
(PID.TID 0000.0001) %MON vort_p_sd                    =   1.3126497682641E-04
(PID.TID 0000.0001) %MON surfExpan_theta_mean         =   1.5065601505246E-04
(PID.TID 0000.0001) %MON surfExpan_salt_mean          =   1.2494062613543E-05
(PID.TID 0000.0001) // =======================================================
(PID.TID 0000.0001) // End MONITOR dynamic field statistics
(PID.TID 0000.0001) // =======================================================
time,SST,SSS,fu,fv,Q,E-P,i0,i1,a,b =   2.1600E+05  2.0403E-01  3.4422E+01 -3.9689E-02 -6.2670E-02  2.6521E+02  0.0000E+00    12     1  5.8333E-01  4.1667E-01
time,fu0,fu1,fu =   2.1600E+05 -4.5368E-02 -3.5633E-02 -3.9689E-02  5.8333E-01  4.1667E-01
 cg2d: Sum(rhs),rhsMax =   4.79425527055710E-14  6.89395558172306E+00
(PID.TID 0000.0001)                    cg2d_init_res =    1.71510084540950E+00
(PID.TID 0000.0001)                       cg2d_iters =    26
(PID.TID 0000.0001)                         cg2d_res =    2.74380067027230E-14
(PID.TID 0000.0001) // =======================================================
(PID.TID 0000.0001) // Begin MONITOR dynamic field statistics
(PID.TID 0000.0001) // =======================================================
(PID.TID 0000.0001) %MON time_tsnumber                =                     6
(PID.TID 0000.0001) %MON time_secondsf                =   2.5920000000000E+05
(PID.TID 0000.0001) %MON dynstat_eta_max              =   7.1959482660992E-01
(PID.TID 0000.0001) %MON dynstat_eta_min              =  -6.4368132420343E-01
(PID.TID 0000.0001) %MON dynstat_eta_mean             =  -3.5039879025147E-17
(PID.TID 0000.0001) %MON dynstat_eta_sd               =   1.7871417213854E-01
(PID.TID 0000.0001) %MON dynstat_eta_del2             =   2.8270511215495E-02
(PID.TID 0000.0001) %MON dynstat_uvel_max             =   6.8176134256858E-02
(PID.TID 0000.0001) %MON dynstat_uvel_min             =  -6.2618554241697E-02
(PID.TID 0000.0001) %MON dynstat_uvel_mean            =  -3.7032813539935E-03
(PID.TID 0000.0001) %MON dynstat_uvel_sd              =   6.0227452087910E-03
(PID.TID 0000.0001) %MON dynstat_uvel_del2            =   2.1457381397285E-03
(PID.TID 0000.0001) %MON dynstat_vvel_max             =   6.8809080029910E-02
(PID.TID 0000.0001) %MON dynstat_vvel_min             =  -6.1181399366053E-02
(PID.TID 0000.0001) %MON dynstat_vvel_mean            =   4.3839320153187E-03
(PID.TID 0000.0001) %MON dynstat_vvel_sd              =   1.3369761702233E-02
(PID.TID 0000.0001) %MON dynstat_vvel_del2            =   2.5217185598544E-03
(PID.TID 0000.0001) %MON dynstat_wvel_max             =   2.5627514772423E-04
(PID.TID 0000.0001) %MON dynstat_wvel_min             =  -2.7194470551620E-04
(PID.TID 0000.0001) %MON dynstat_wvel_mean            =  -1.0004846536746E-21
(PID.TID 0000.0001) %MON dynstat_wvel_sd              =   3.2463263125199E-05
(PID.TID 0000.0001) %MON dynstat_wvel_del2            =   1.0209422178483E-05
(PID.TID 0000.0001) %MON dynstat_theta_max            =   2.9726455071511E+01
(PID.TID 0000.0001) %MON dynstat_theta_min            =  -1.9756921638526E+00
(PID.TID 0000.0001) %MON dynstat_theta_mean           =   3.6113235101357E+00
(PID.TID 0000.0001) %MON dynstat_theta_sd             =   4.3988501929805E+00
(PID.TID 0000.0001) %MON dynstat_theta_del2           =   1.4510121729382E-01
(PID.TID 0000.0001) %MON dynstat_salt_max             =   3.7449510091548E+01
(PID.TID 0000.0001) %MON dynstat_salt_min             =   2.9774513629707E+01
(PID.TID 0000.0001) %MON dynstat_salt_mean            =   3.4717306355517E+01
(PID.TID 0000.0001) %MON dynstat_salt_sd              =   2.9601367289155E-01
(PID.TID 0000.0001) %MON dynstat_salt_del2            =   2.6080200257527E-02
(PID.TID 0000.0001) %MON advcfl_uvel_max              =   1.5051312195346E-02
(PID.TID 0000.0001) %MON advcfl_vvel_max              =   6.6842503424225E-03
(PID.TID 0000.0001) %MON advcfl_wvel_max              =   2.1502942959283E-01
(PID.TID 0000.0001) %MON advcfl_W_hf_max              =   2.2312935941223E-01
(PID.TID 0000.0001) %MON pe_b_mean                    =   4.0869487104581E-05
(PID.TID 0000.0001) %MON ke_max                       =   2.4665141762373E-03
(PID.TID 0000.0001) %MON ke_mean                      =   1.1158733001225E-04
(PID.TID 0000.0001) %MON ke_vol                       =   1.3226782436723E+18
(PID.TID 0000.0001) %MON vort_r_min                   =  -2.8619411441847E-07
(PID.TID 0000.0001) %MON vort_r_max                   =   3.0627229480029E-07
(PID.TID 0000.0001) %MON vort_a_mean                  =  -2.5205769176228E-05
(PID.TID 0000.0001) %MON vort_a_sd                    =   7.3402569514186E-05
(PID.TID 0000.0001) %MON vort_p_mean                  =  -3.1758669283789E-05
(PID.TID 0000.0001) %MON vort_p_sd                    =   1.3126444450671E-04
(PID.TID 0000.0001) %MON surfExpan_theta_mean         =   1.6129180956417E-04
(PID.TID 0000.0001) %MON surfExpan_salt_mean          =   1.3255561174039E-05
(PID.TID 0000.0001) // =======================================================
(PID.TID 0000.0001) // End MONITOR dynamic field statistics
(PID.TID 0000.0001) // =======================================================
time,SST,SSS,fu,fv,Q,E-P,i0,i1,a,b =   2.5920E+05  2.3421E-01  3.4434E+01 -3.9527E-02 -6.2453E-02  2.6523E+02  0.0000E+00    12     1  6.0000E-01  4.0000E-01
time,fu0,fu1,fu =   2.5920E+05 -4.5368E-02 -3.5633E-02 -3.9527E-02  6.0000E-01  4.0000E-01
 cg2d: Sum(rhs),rhsMax =  -3.74821701454309E-14  7.15197465286573E+00
(PID.TID 0000.0001)                    cg2d_init_res =    1.59738163352326E+00
(PID.TID 0000.0001)                       cg2d_iters =    26
(PID.TID 0000.0001)                         cg2d_res =    2.62642014290126E-14
(PID.TID 0000.0001) // =======================================================
(PID.TID 0000.0001) // Begin MONITOR dynamic field statistics
(PID.TID 0000.0001) // =======================================================
(PID.TID 0000.0001) %MON time_tsnumber                =                     7
(PID.TID 0000.0001) %MON time_secondsf                =   3.0240000000000E+05
(PID.TID 0000.0001) %MON dynstat_eta_max              =   8.2241092333071E-01
(PID.TID 0000.0001) %MON dynstat_eta_min              =  -7.0122087367730E-01
(PID.TID 0000.0001) %MON dynstat_eta_mean             =   4.4204822537727E-17
(PID.TID 0000.0001) %MON dynstat_eta_sd               =   2.0514322244565E-01
(PID.TID 0000.0001) %MON dynstat_eta_del2             =   2.7124795747023E-02
(PID.TID 0000.0001) %MON dynstat_uvel_max             =   8.0140737374691E-02
(PID.TID 0000.0001) %MON dynstat_uvel_min             =  -7.5133654501574E-02
(PID.TID 0000.0001) %MON dynstat_uvel_mean            =  -4.6308632267609E-03
(PID.TID 0000.0001) %MON dynstat_uvel_sd              =   7.2758121055967E-03
(PID.TID 0000.0001) %MON dynstat_uvel_del2            =   2.4440336160419E-03
(PID.TID 0000.0001) %MON dynstat_vvel_max             =   7.9433858079765E-02
(PID.TID 0000.0001) %MON dynstat_vvel_min             =  -7.2766938427910E-02
(PID.TID 0000.0001) %MON dynstat_vvel_mean            =   4.7577708389007E-03
(PID.TID 0000.0001) %MON dynstat_vvel_sd              =   1.4358570167659E-02
(PID.TID 0000.0001) %MON dynstat_vvel_del2            =   2.8496681359535E-03
(PID.TID 0000.0001) %MON dynstat_wvel_max             =   2.8110387866158E-04
(PID.TID 0000.0001) %MON dynstat_wvel_min             =  -3.0181171442830E-04
(PID.TID 0000.0001) %MON dynstat_wvel_mean            =   7.9629354716312E-22
(PID.TID 0000.0001) %MON dynstat_wvel_sd              =   3.4463613481169E-05
(PID.TID 0000.0001) %MON dynstat_wvel_del2            =   1.1492159790691E-05
(PID.TID 0000.0001) %MON dynstat_theta_max            =   2.9720036485839E+01
(PID.TID 0000.0001) %MON dynstat_theta_min            =  -1.9960570531135E+00
(PID.TID 0000.0001) %MON dynstat_theta_mean           =   3.6094295039801E+00
(PID.TID 0000.0001) %MON dynstat_theta_sd             =   4.3945912078932E+00
(PID.TID 0000.0001) %MON dynstat_theta_del2           =   1.4421321350759E-01
(PID.TID 0000.0001) %MON dynstat_salt_max             =   3.7446951356462E+01
(PID.TID 0000.0001) %MON dynstat_salt_min             =   2.9778528273974E+01
(PID.TID 0000.0001) %MON dynstat_salt_mean            =   3.4717151911036E+01
(PID.TID 0000.0001) %MON dynstat_salt_sd              =   2.9598386103243E-01
(PID.TID 0000.0001) %MON dynstat_salt_del2            =   2.5992106480562E-02
(PID.TID 0000.0001) %MON advcfl_uvel_max              =   1.7764484408130E-02
(PID.TID 0000.0001) %MON advcfl_vvel_max              =   7.7163623294892E-03
(PID.TID 0000.0001) %MON advcfl_wvel_max              =   1.8338360509541E-01
(PID.TID 0000.0001) %MON advcfl_W_hf_max              =   1.8262143827841E-01
(PID.TID 0000.0001) %MON pe_b_mean                    =   5.3851219997354E-05
(PID.TID 0000.0001) %MON ke_max                       =   3.2883081749723E-03
(PID.TID 0000.0001) %MON ke_mean                      =   1.3651358089782E-04
(PID.TID 0000.0001) %MON ke_vol                       =   1.3226782436723E+18
(PID.TID 0000.0001) %MON vort_r_min                   =  -3.1772573175658E-07
(PID.TID 0000.0001) %MON vort_r_max                   =   3.3848955134940E-07
(PID.TID 0000.0001) %MON vort_a_mean                  =  -2.5205769190669E-05
(PID.TID 0000.0001) %MON vort_a_sd                    =   7.3402395538461E-05
(PID.TID 0000.0001) %MON vort_p_mean                  =  -3.1758669301983E-05
(PID.TID 0000.0001) %MON vort_p_sd                    =   1.3126385217371E-04
(PID.TID 0000.0001) %MON surfExpan_theta_mean         =   1.6714379558417E-04
(PID.TID 0000.0001) %MON surfExpan_salt_mean          =   1.3552567997626E-05
(PID.TID 0000.0001) // =======================================================
(PID.TID 0000.0001) // End MONITOR dynamic field statistics
(PID.TID 0000.0001) // =======================================================
time,SST,SSS,fu,fv,Q,E-P,i0,i1,a,b =   3.0240E+05  2.6438E-01  3.4446E+01 -3.9365E-02 -6.2237E-02  2.6525E+02  0.0000E+00    12     1  6.1667E-01  3.8333E-01
time,fu0,fu1,fu =   3.0240E+05 -4.5368E-02 -3.5633E-02 -3.9365E-02  6.1667E-01  3.8333E-01
 cg2d: Sum(rhs),rhsMax =  -7.84272820297804E-14  7.75912737003210E+00
(PID.TID 0000.0001)                    cg2d_init_res =    1.41815023103887E+00
(PID.TID 0000.0001)                       cg2d_iters =    26
(PID.TID 0000.0001)                         cg2d_res =    2.36111254731719E-14
(PID.TID 0000.0001) // =======================================================
(PID.TID 0000.0001) // Begin MONITOR dynamic field statistics
(PID.TID 0000.0001) // =======================================================
(PID.TID 0000.0001) %MON time_tsnumber                =                     8
(PID.TID 0000.0001) %MON time_secondsf                =   3.4560000000000E+05
(PID.TID 0000.0001) %MON dynstat_eta_max              =   8.9650260250649E-01
(PID.TID 0000.0001) %MON dynstat_eta_min              =  -7.3524922543606E-01
(PID.TID 0000.0001) %MON dynstat_eta_mean             =   6.6518630047134E-18
(PID.TID 0000.0001) %MON dynstat_eta_sd               =   2.3053365666762E-01
(PID.TID 0000.0001) %MON dynstat_eta_del2             =   2.6272273415781E-02
(PID.TID 0000.0001) %MON dynstat_uvel_max             =   9.1706035754970E-02
(PID.TID 0000.0001) %MON dynstat_uvel_min             =  -9.5582619500714E-02
(PID.TID 0000.0001) %MON dynstat_uvel_mean            =  -5.5596287617377E-03
(PID.TID 0000.0001) %MON dynstat_uvel_sd              =   8.5682224501718E-03
(PID.TID 0000.0001) %MON dynstat_uvel_del2            =   2.7287173425062E-03
(PID.TID 0000.0001) %MON dynstat_vvel_max             =   8.7404412837528E-02
(PID.TID 0000.0001) %MON dynstat_vvel_min             =  -8.4408846467207E-02
(PID.TID 0000.0001) %MON dynstat_vvel_mean            =   5.0090115358665E-03
(PID.TID 0000.0001) %MON dynstat_vvel_sd              =   1.5079059966578E-02
(PID.TID 0000.0001) %MON dynstat_vvel_del2            =   3.1472846672093E-03
(PID.TID 0000.0001) %MON dynstat_wvel_max             =   3.0283419202392E-04
(PID.TID 0000.0001) %MON dynstat_wvel_min             =  -3.2829884556705E-04
(PID.TID 0000.0001) %MON dynstat_wvel_mean            =  -1.0318244308988E-21
(PID.TID 0000.0001) %MON dynstat_wvel_sd              =   3.6352001697124E-05
(PID.TID 0000.0001) %MON dynstat_wvel_del2            =   1.2630465430727E-05
(PID.TID 0000.0001) %MON dynstat_theta_max            =   2.9705167312635E+01
(PID.TID 0000.0001) %MON dynstat_theta_min            =  -2.0133922163239E+00
(PID.TID 0000.0001) %MON dynstat_theta_mean           =   3.6075474001196E+00
(PID.TID 0000.0001) %MON dynstat_theta_sd             =   4.3902298927551E+00
(PID.TID 0000.0001) %MON dynstat_theta_del2           =   1.4324063435637E-01
(PID.TID 0000.0001) %MON dynstat_salt_max             =   3.7444925804362E+01
(PID.TID 0000.0001) %MON dynstat_salt_min             =   2.9782263857737E+01
(PID.TID 0000.0001) %MON dynstat_salt_mean            =   3.4717001360461E+01
(PID.TID 0000.0001) %MON dynstat_salt_sd              =   2.9594522260615E-01
(PID.TID 0000.0001) %MON dynstat_salt_del2            =   2.5903061932353E-02
(PID.TID 0000.0001) %MON advcfl_uvel_max              =   1.9385286494285E-02
(PID.TID 0000.0001) %MON advcfl_vvel_max              =   8.4906378080411E-03
(PID.TID 0000.0001) %MON advcfl_wvel_max              =   1.9847899646965E-01
(PID.TID 0000.0001) %MON advcfl_W_hf_max              =   2.0418626579960E-01
(PID.TID 0000.0001) %MON pe_b_mean                    =   6.8006414502671E-05
(PID.TID 0000.0001) %MON ke_max                       =   4.3071999600391E-03
(PID.TID 0000.0001) %MON ke_mean                      =   1.6073999429939E-04
(PID.TID 0000.0001) %MON ke_vol                       =   1.3226782436723E+18
(PID.TID 0000.0001) %MON vort_r_min                   =  -3.4275975421683E-07
(PID.TID 0000.0001) %MON vort_r_max                   =   4.1943166896335E-07
(PID.TID 0000.0001) %MON vort_a_mean                  =  -2.5205769233152E-05
(PID.TID 0000.0001) %MON vort_a_sd                    =   7.3402221263633E-05
(PID.TID 0000.0001) %MON vort_p_mean                  =  -3.1758669355512E-05
(PID.TID 0000.0001) %MON vort_p_sd                    =   1.3126321830743E-04
(PID.TID 0000.0001) %MON surfExpan_theta_mean         =   1.6876552945377E-04
(PID.TID 0000.0001) %MON surfExpan_salt_mean          =   1.3448645866570E-05
(PID.TID 0000.0001) // =======================================================
(PID.TID 0000.0001) // End MONITOR dynamic field statistics
(PID.TID 0000.0001) // =======================================================
time,SST,SSS,fu,fv,Q,E-P,i0,i1,a,b =   3.4560E+05  2.9456E-01  3.4457E+01 -3.9202E-02 -6.2020E-02  2.6528E+02  0.0000E+00    12     1  6.3333E-01  3.6667E-01
time,fu0,fu1,fu =   3.4560E+05 -4.5368E-02 -3.5633E-02 -3.9202E-02  6.3333E-01  3.6667E-01
 cg2d: Sum(rhs),rhsMax =  -1.26530730337748E-14  8.10189543860990E+00
(PID.TID 0000.0001)                    cg2d_init_res =    1.30943320998878E+00
(PID.TID 0000.0001)                       cg2d_iters =    25
(PID.TID 0000.0001)                         cg2d_res =    9.75841892117675E-14
(PID.TID 0000.0001) // =======================================================
(PID.TID 0000.0001) // Begin MONITOR dynamic field statistics
(PID.TID 0000.0001) // =======================================================
(PID.TID 0000.0001) %MON time_tsnumber                =                     9
(PID.TID 0000.0001) %MON time_secondsf                =   3.8880000000000E+05
(PID.TID 0000.0001) %MON dynstat_eta_max              =   9.4064172109216E-01
(PID.TID 0000.0001) %MON dynstat_eta_min              =  -8.1284634640295E-01
(PID.TID 0000.0001) %MON dynstat_eta_mean             =   5.9018886414329E-17
(PID.TID 0000.0001) %MON dynstat_eta_sd               =   2.5465324337562E-01
(PID.TID 0000.0001) %MON dynstat_eta_del2             =   2.5570080782272E-02
(PID.TID 0000.0001) %MON dynstat_uvel_max             =   1.0289594293347E-01
(PID.TID 0000.0001) %MON dynstat_uvel_min             =  -1.1425471407149E-01
(PID.TID 0000.0001) %MON dynstat_uvel_mean            =  -6.4602881659236E-03
(PID.TID 0000.0001) %MON dynstat_uvel_sd              =   9.8690489964250E-03
(PID.TID 0000.0001) %MON dynstat_uvel_del2            =   2.9987330040359E-03
(PID.TID 0000.0001) %MON dynstat_vvel_max             =   9.2313953966729E-02
(PID.TID 0000.0001) %MON dynstat_vvel_min             =  -9.5436240519184E-02
(PID.TID 0000.0001) %MON dynstat_vvel_mean            =   5.1397213320398E-03
(PID.TID 0000.0001) %MON dynstat_vvel_sd              =   1.5563601343880E-02
(PID.TID 0000.0001) %MON dynstat_vvel_del2            =   3.4166961273418E-03
(PID.TID 0000.0001) %MON dynstat_wvel_max             =   3.2059525371983E-04
(PID.TID 0000.0001) %MON dynstat_wvel_min             =  -3.5192453574947E-04
(PID.TID 0000.0001) %MON dynstat_wvel_mean            =   5.7767919283769E-22
(PID.TID 0000.0001) %MON dynstat_wvel_sd              =   3.7995756063491E-05
(PID.TID 0000.0001) %MON dynstat_wvel_del2            =   1.3583143855399E-05
(PID.TID 0000.0001) %MON dynstat_theta_max            =   2.9683514251005E+01
(PID.TID 0000.0001) %MON dynstat_theta_min            =  -2.0265867500741E+00
(PID.TID 0000.0001) %MON dynstat_theta_mean           =   3.6057147974324E+00
(PID.TID 0000.0001) %MON dynstat_theta_sd             =   4.3858307744336E+00
(PID.TID 0000.0001) %MON dynstat_theta_del2           =   1.4227763278964E-01
(PID.TID 0000.0001) %MON dynstat_salt_max             =   3.7443133627112E+01
(PID.TID 0000.0001) %MON dynstat_salt_min             =   2.9785619043049E+01
(PID.TID 0000.0001) %MON dynstat_salt_mean            =   3.4716858166538E+01
(PID.TID 0000.0001) %MON dynstat_salt_sd              =   2.9589856712674E-01
(PID.TID 0000.0001) %MON dynstat_salt_del2            =   2.5817882815171E-02
(PID.TID 0000.0001) %MON advcfl_uvel_max              =   1.9732454134449E-02
(PID.TID 0000.0001) %MON advcfl_vvel_max              =   9.2708654597994E-03
(PID.TID 0000.0001) %MON advcfl_wvel_max              =   2.0775398138407E-01
(PID.TID 0000.0001) %MON advcfl_W_hf_max              =   2.1660298993008E-01
(PID.TID 0000.0001) %MON pe_b_mean                    =   8.2981183391906E-05
(PID.TID 0000.0001) %MON ke_max                       =   5.4183702174991E-03
(PID.TID 0000.0001) %MON ke_mean                      =   1.8381579332688E-04
(PID.TID 0000.0001) %MON ke_vol                       =   1.3226782436723E+18
(PID.TID 0000.0001) %MON vort_r_min                   =  -3.6241054083024E-07
(PID.TID 0000.0001) %MON vort_r_max                   =   5.0229434177030E-07
(PID.TID 0000.0001) %MON vort_a_mean                  =  -2.5205769294172E-05
(PID.TID 0000.0001) %MON vort_a_sd                    =   7.3402051636639E-05
(PID.TID 0000.0001) %MON vort_p_mean                  =  -3.1758669432396E-05
(PID.TID 0000.0001) %MON vort_p_sd                    =   1.3126256325807E-04
(PID.TID 0000.0001) %MON surfExpan_theta_mean         =   1.6670259289801E-04
(PID.TID 0000.0001) %MON surfExpan_salt_mean          =   1.3000316661459E-05
(PID.TID 0000.0001) // =======================================================
(PID.TID 0000.0001) // End MONITOR dynamic field statistics
(PID.TID 0000.0001) // =======================================================
time,SST,SSS,fu,fv,Q,E-P,i0,i1,a,b =   3.8880E+05  3.2473E-01  3.4469E+01 -3.9040E-02 -6.1804E-02  2.6530E+02  0.0000E+00    12     1  6.5000E-01  3.5000E-01
time,fu0,fu1,fu =   3.8880E+05 -4.5368E-02 -3.5633E-02 -3.9040E-02  6.5000E-01  3.5000E-01
 cg2d: Sum(rhs),rhsMax =  -2.16670811067216E-13  8.20838987866647E+00
(PID.TID 0000.0001)                    cg2d_init_res =    1.24843075214787E+00
(PID.TID 0000.0001)                       cg2d_iters =    25
(PID.TID 0000.0001)                         cg2d_res =    9.14512464059164E-14
(PID.TID 0000.0001) // =======================================================
(PID.TID 0000.0001) // Begin MONITOR dynamic field statistics
(PID.TID 0000.0001) // =======================================================
(PID.TID 0000.0001) %MON time_tsnumber                =                    10
(PID.TID 0000.0001) %MON time_secondsf                =   4.3200000000000E+05
(PID.TID 0000.0001) %MON dynstat_eta_max              =   9.5839646272562E-01
(PID.TID 0000.0001) %MON dynstat_eta_min              =  -8.6938666892224E-01
(PID.TID 0000.0001) %MON dynstat_eta_mean             =   1.5704738636638E-18
(PID.TID 0000.0001) %MON dynstat_eta_sd               =   2.7723382851868E-01
(PID.TID 0000.0001) %MON dynstat_eta_del2             =   2.4849523868392E-02
(PID.TID 0000.0001) %MON dynstat_uvel_max             =   1.1373756886608E-01
(PID.TID 0000.0001) %MON dynstat_uvel_min             =  -1.2999275285327E-01
(PID.TID 0000.0001) %MON dynstat_uvel_mean            =  -7.3056379364616E-03
(PID.TID 0000.0001) %MON dynstat_uvel_sd              =   1.1150073215130E-02
(PID.TID 0000.0001) %MON dynstat_uvel_del2            =   3.2513021262524E-03
(PID.TID 0000.0001) %MON dynstat_vvel_max             =   9.4244432993566E-02
(PID.TID 0000.0001) %MON dynstat_vvel_min             =  -1.0568944697433E-01
(PID.TID 0000.0001) %MON dynstat_vvel_mean            =   5.1564899147377E-03
(PID.TID 0000.0001) %MON dynstat_vvel_sd              =   1.5849829162185E-02
(PID.TID 0000.0001) %MON dynstat_vvel_del2            =   3.6614960096815E-03
(PID.TID 0000.0001) %MON dynstat_wvel_max             =   3.3353589991760E-04
(PID.TID 0000.0001) %MON dynstat_wvel_min             =  -3.7345509013589E-04
(PID.TID 0000.0001) %MON dynstat_wvel_mean            =  -3.3854529706590E-22
(PID.TID 0000.0001) %MON dynstat_wvel_sd              =   3.9324351890603E-05
(PID.TID 0000.0001) %MON dynstat_wvel_del2            =   1.4353227945564E-05
(PID.TID 0000.0001) %MON dynstat_theta_max            =   2.9658224716121E+01
(PID.TID 0000.0001) %MON dynstat_theta_min            =  -2.0353180993484E+00
(PID.TID 0000.0001) %MON dynstat_theta_mean           =   3.6039628937535E+00
(PID.TID 0000.0001) %MON dynstat_theta_sd             =   4.3814523927976E+00
(PID.TID 0000.0001) %MON dynstat_theta_del2           =   1.4133092234127E-01
(PID.TID 0000.0001) %MON dynstat_salt_max             =   3.7441345491798E+01
(PID.TID 0000.0001) %MON dynstat_salt_min             =   2.9788514598536E+01
(PID.TID 0000.0001) %MON dynstat_salt_mean            =   3.4716725143960E+01
(PID.TID 0000.0001) %MON dynstat_salt_sd              =   2.9584489985789E-01
(PID.TID 0000.0001) %MON dynstat_salt_del2            =   2.5734084169861E-02
(PID.TID 0000.0001) %MON advcfl_uvel_max              =   1.8856813801711E-02
(PID.TID 0000.0001) %MON advcfl_vvel_max              =   1.0266882246087E-02
(PID.TID 0000.0001) %MON advcfl_wvel_max              =   2.1508809864962E-01
(PID.TID 0000.0001) %MON advcfl_W_hf_max              =   2.1059822276803E-01
(PID.TID 0000.0001) %MON pe_b_mean                    =   9.8349837150431E-05
(PID.TID 0000.0001) %MON ke_max                       =   6.6177441360534E-03
(PID.TID 0000.0001) %MON ke_mean                      =   2.0544970409762E-04
(PID.TID 0000.0001) %MON ke_vol                       =   1.3226782436723E+18
(PID.TID 0000.0001) %MON vort_r_min                   =  -3.7957105056938E-07
(PID.TID 0000.0001) %MON vort_r_max                   =   5.8076042603495E-07
(PID.TID 0000.0001) %MON vort_a_mean                  =  -2.5205769362016E-05
(PID.TID 0000.0001) %MON vort_a_sd                    =   7.3401891341798E-05
(PID.TID 0000.0001) %MON vort_p_mean                  =  -3.1758669517878E-05
(PID.TID 0000.0001) %MON vort_p_sd                    =   1.3126190975307E-04
(PID.TID 0000.0001) %MON surfExpan_theta_mean         =   1.6153814526700E-04
(PID.TID 0000.0001) %MON surfExpan_salt_mean          =   1.2267063071888E-05
(PID.TID 0000.0001) // =======================================================
(PID.TID 0000.0001) // End MONITOR dynamic field statistics
(PID.TID 0000.0001) // =======================================================
time,SST,SSS,fu,fv,Q,E-P,i0,i1,a,b =   4.3200E+05  3.5491E-01  3.4481E+01 -3.8878E-02 -6.1587E-02  2.6532E+02  0.0000E+00    12     1  6.6667E-01  3.3333E-01
time,fu0,fu1,fu =   4.3200E+05 -4.5368E-02 -3.5633E-02 -3.8878E-02  6.6667E-01  3.3333E-01
 cg2d: Sum(rhs),rhsMax =  -4.83567179354605E-14  8.13787538473574E+00
(PID.TID 0000.0001)                    cg2d_init_res =    1.21764756833510E+00
(PID.TID 0000.0001)                       cg2d_iters =    25
(PID.TID 0000.0001)                         cg2d_res =    8.73112773412543E-14
(PID.TID 0000.0001) // =======================================================
(PID.TID 0000.0001) // Begin MONITOR dynamic field statistics
(PID.TID 0000.0001) // =======================================================
(PID.TID 0000.0001) %MON time_tsnumber                =                    11
(PID.TID 0000.0001) %MON time_secondsf                =   4.7520000000000E+05
(PID.TID 0000.0001) %MON dynstat_eta_max              =   9.5610500298101E-01
(PID.TID 0000.0001) %MON dynstat_eta_min              =  -9.2347732671864E-01
(PID.TID 0000.0001) %MON dynstat_eta_mean             =   4.7375926142910E-17
(PID.TID 0000.0001) %MON dynstat_eta_sd               =   2.9801989061725E-01
(PID.TID 0000.0001) %MON dynstat_eta_del2             =   2.4165544566881E-02
(PID.TID 0000.0001) %MON dynstat_uvel_max             =   1.2423150973065E-01
(PID.TID 0000.0001) %MON dynstat_uvel_min             =  -1.4212537732057E-01
(PID.TID 0000.0001) %MON dynstat_uvel_mean            =  -8.0714445771446E-03
(PID.TID 0000.0001) %MON dynstat_uvel_sd              =   1.2387263189047E-02
(PID.TID 0000.0001) %MON dynstat_uvel_del2            =   3.4894737345811E-03
(PID.TID 0000.0001) %MON dynstat_vvel_max             =   1.0267072707751E-01
(PID.TID 0000.0001) %MON dynstat_vvel_min             =  -1.1495449011491E-01
(PID.TID 0000.0001) %MON dynstat_vvel_mean            =   5.0702597957106E-03
(PID.TID 0000.0001) %MON dynstat_vvel_sd              =   1.5979352836244E-02
(PID.TID 0000.0001) %MON dynstat_vvel_del2            =   3.8841206927451E-03
(PID.TID 0000.0001) %MON dynstat_wvel_max             =   3.4118280959817E-04
(PID.TID 0000.0001) %MON dynstat_wvel_min             =  -3.9350646466422E-04
(PID.TID 0000.0001) %MON dynstat_wvel_mean            =  -1.8129552048794E-21
(PID.TID 0000.0001) %MON dynstat_wvel_sd              =   4.0324073524232E-05
(PID.TID 0000.0001) %MON dynstat_wvel_del2            =   1.4965131112794E-05
(PID.TID 0000.0001) %MON dynstat_theta_max            =   2.9631739620573E+01
(PID.TID 0000.0001) %MON dynstat_theta_min            =  -2.0399153164639E+00
(PID.TID 0000.0001) %MON dynstat_theta_mean           =   3.6023161483551E+00
(PID.TID 0000.0001) %MON dynstat_theta_sd             =   4.3771457641899E+00
(PID.TID 0000.0001) %MON dynstat_theta_del2           =   1.4043043439105E-01
(PID.TID 0000.0001) %MON dynstat_salt_max             =   3.7439433201862E+01
(PID.TID 0000.0001) %MON dynstat_salt_min             =   2.9790894406875E+01
(PID.TID 0000.0001) %MON dynstat_salt_mean            =   3.4716604361597E+01
(PID.TID 0000.0001) %MON dynstat_salt_sd              =   2.9578665582063E-01
(PID.TID 0000.0001) %MON dynstat_salt_del2            =   2.5656374211939E-02
(PID.TID 0000.0001) %MON advcfl_uvel_max              =   1.9785725954635E-02
(PID.TID 0000.0001) %MON advcfl_vvel_max              =   1.1166906890480E-02
(PID.TID 0000.0001) %MON advcfl_wvel_max              =   2.1779856186513E-01
(PID.TID 0000.0001) %MON advcfl_W_hf_max              =   2.0603405880035E-01
(PID.TID 0000.0001) %MON pe_b_mean                    =   1.1365059195935E-04
(PID.TID 0000.0001) %MON ke_max                       =   7.8966171296977E-03
(PID.TID 0000.0001) %MON ke_mean                      =   2.2548431632197E-04
(PID.TID 0000.0001) %MON ke_vol                       =   1.3226782436723E+18
(PID.TID 0000.0001) %MON vort_r_min                   =  -3.9933716651972E-07
(PID.TID 0000.0001) %MON vort_r_max                   =   6.5182432040575E-07
(PID.TID 0000.0001) %MON vort_a_mean                  =  -2.5205769425787E-05
(PID.TID 0000.0001) %MON vort_a_sd                    =   7.3401744646147E-05
(PID.TID 0000.0001) %MON vort_p_mean                  =  -3.1758669598227E-05
(PID.TID 0000.0001) %MON vort_p_sd                    =   1.3126128190041E-04
(PID.TID 0000.0001) %MON surfExpan_theta_mean         =   1.5383386680408E-04
(PID.TID 0000.0001) %MON surfExpan_salt_mean          =   1.1309640539967E-05
(PID.TID 0000.0001) // =======================================================
(PID.TID 0000.0001) // End MONITOR dynamic field statistics
(PID.TID 0000.0001) // =======================================================
time,SST,SSS,fu,fv,Q,E-P,i0,i1,a,b =   4.7520E+05  3.8508E-01  3.4492E+01 -3.8716E-02 -6.1371E-02  2.6534E+02  0.0000E+00    12     1  6.8333E-01  3.1667E-01
time,fu0,fu1,fu =   4.7520E+05 -4.5368E-02 -3.5633E-02 -3.8716E-02  6.8333E-01  3.1667E-01
 cg2d: Sum(rhs),rhsMax =  -2.06892662724112E-13  8.14788871653525E+00
(PID.TID 0000.0001)                    cg2d_init_res =    1.17638062097517E+00
(PID.TID 0000.0001)                       cg2d_iters =    25
(PID.TID 0000.0001)                         cg2d_res =    8.27100354009417E-14
(PID.TID 0000.0001) // =======================================================
(PID.TID 0000.0001) // Begin MONITOR dynamic field statistics
(PID.TID 0000.0001) // =======================================================
(PID.TID 0000.0001) %MON time_tsnumber                =                    12
(PID.TID 0000.0001) %MON time_secondsf                =   5.1840000000000E+05
(PID.TID 0000.0001) %MON dynstat_eta_max              =   1.0074952809529E+00
(PID.TID 0000.0001) %MON dynstat_eta_min              =  -1.0456218600544E+00
(PID.TID 0000.0001) %MON dynstat_eta_mean             =   4.3778151262195E-17
(PID.TID 0000.0001) %MON dynstat_eta_sd               =   3.1679447874461E-01
(PID.TID 0000.0001) %MON dynstat_eta_del2             =   2.3412649880940E-02
(PID.TID 0000.0001) %MON dynstat_uvel_max             =   1.3434959297699E-01
(PID.TID 0000.0001) %MON dynstat_uvel_min             =  -1.5042032790358E-01
(PID.TID 0000.0001) %MON dynstat_uvel_mean            =  -8.7373309252546E-03
(PID.TID 0000.0001) %MON dynstat_uvel_sd              =   1.3561665092697E-02
(PID.TID 0000.0001) %MON dynstat_uvel_del2            =   3.7121777016619E-03
(PID.TID 0000.0001) %MON dynstat_vvel_max             =   1.0909702753804E-01
(PID.TID 0000.0001) %MON dynstat_vvel_min             =  -1.2299796006968E-01
(PID.TID 0000.0001) %MON dynstat_vvel_mean            =   4.8958452224718E-03
(PID.TID 0000.0001) %MON dynstat_vvel_sd              =   1.5995482156296E-02
(PID.TID 0000.0001) %MON dynstat_vvel_del2            =   4.0875317468629E-03
(PID.TID 0000.0001) %MON dynstat_wvel_max             =   3.4889561347373E-04
(PID.TID 0000.0001) %MON dynstat_wvel_min             =  -4.1226545751301E-04
(PID.TID 0000.0001) %MON dynstat_wvel_mean            =  -3.9975245786045E-21
(PID.TID 0000.0001) %MON dynstat_wvel_sd              =   4.1016285380244E-05
(PID.TID 0000.0001) %MON dynstat_wvel_del2            =   1.5439432864425E-05
(PID.TID 0000.0001) %MON dynstat_theta_max            =   2.9604817057475E+01
(PID.TID 0000.0001) %MON dynstat_theta_min            =  -2.0410855198489E+00
(PID.TID 0000.0001) %MON dynstat_theta_mean           =   3.6007932267450E+00
(PID.TID 0000.0001) %MON dynstat_theta_sd             =   4.3729551927306E+00
(PID.TID 0000.0001) %MON dynstat_theta_del2           =   1.3957783212097E-01
(PID.TID 0000.0001) %MON dynstat_salt_max             =   3.7437313117321E+01
(PID.TID 0000.0001) %MON dynstat_salt_min             =   2.9792878071387E+01
(PID.TID 0000.0001) %MON dynstat_salt_mean            =   3.4716497212710E+01
(PID.TID 0000.0001) %MON dynstat_salt_sd              =   2.9572488669000E-01
(PID.TID 0000.0001) %MON dynstat_salt_del2            =   2.5585432628180E-02
(PID.TID 0000.0001) %MON advcfl_uvel_max              =   2.3574391488337E-02
(PID.TID 0000.0001) %MON advcfl_vvel_max              =   1.1948265495712E-02
(PID.TID 0000.0001) %MON advcfl_wvel_max              =   2.1819616909141E-01
(PID.TID 0000.0001) %MON advcfl_W_hf_max              =   1.8945583252602E-01
(PID.TID 0000.0001) %MON pe_b_mean                    =   1.2842110660909E-04
(PID.TID 0000.0001) %MON ke_max                       =   9.2378762547328E-03
(PID.TID 0000.0001) %MON ke_mean                      =   2.4386552341861E-04
(PID.TID 0000.0001) %MON ke_vol                       =   1.3226782436723E+18
(PID.TID 0000.0001) %MON vort_r_min                   =  -4.0763666304877E-07
(PID.TID 0000.0001) %MON vort_r_max                   =   7.1290551593133E-07
(PID.TID 0000.0001) %MON vort_a_mean                  =  -2.5205769476608E-05
(PID.TID 0000.0001) %MON vort_a_sd                    =   7.3401615245746E-05
(PID.TID 0000.0001) %MON vort_p_mean                  =  -3.1758669662260E-05
(PID.TID 0000.0001) %MON vort_p_sd                    =   1.3126070388678E-04
(PID.TID 0000.0001) %MON surfExpan_theta_mean         =   1.4414369220231E-04
(PID.TID 0000.0001) %MON surfExpan_salt_mean          =   1.0192740233808E-05
(PID.TID 0000.0001) // =======================================================
(PID.TID 0000.0001) // End MONITOR dynamic field statistics
(PID.TID 0000.0001) // =======================================================
time,SST,SSS,fu,fv,Q,E-P,i0,i1,a,b =   5.1840E+05  4.1526E-01  3.4504E+01 -3.8553E-02 -6.1154E-02  2.6537E+02  0.0000E+00    12     1  7.0000E-01  3.0000E-01
time,fu0,fu1,fu =   5.1840E+05 -4.5368E-02 -3.5633E-02 -3.8553E-02  7.0000E-01  3.0000E-01
 cg2d: Sum(rhs),rhsMax =   2.83489377805868E-13  8.75897655452795E+00
(PID.TID 0000.0001)                    cg2d_init_res =    1.05920576620051E+00
(PID.TID 0000.0001)                       cg2d_iters =    25
(PID.TID 0000.0001)                         cg2d_res =    7.25210977419969E-14
(PID.TID 0000.0001) // =======================================================
(PID.TID 0000.0001) // Begin MONITOR dynamic field statistics
(PID.TID 0000.0001) // =======================================================
(PID.TID 0000.0001) %MON time_tsnumber                =                    13
(PID.TID 0000.0001) %MON time_secondsf                =   5.6160000000000E+05
(PID.TID 0000.0001) %MON dynstat_eta_max              =   1.0612829545239E+00
(PID.TID 0000.0001) %MON dynstat_eta_min              =  -1.1653292497301E+00
(PID.TID 0000.0001) %MON dynstat_eta_mean             =  -1.1897585118979E-16
(PID.TID 0000.0001) %MON dynstat_eta_sd               =   3.3339720151508E-01
(PID.TID 0000.0001) %MON dynstat_eta_del2             =   2.2673884612592E-02
(PID.TID 0000.0001) %MON dynstat_uvel_max             =   1.4404834909176E-01
(PID.TID 0000.0001) %MON dynstat_uvel_min             =  -1.5498454381975E-01
(PID.TID 0000.0001) %MON dynstat_uvel_mean            =  -9.2875697259776E-03
(PID.TID 0000.0001) %MON dynstat_uvel_sd              =   1.4659495473830E-02
(PID.TID 0000.0001) %MON dynstat_uvel_del2            =   3.9196154232526E-03
(PID.TID 0000.0001) %MON dynstat_vvel_max             =   1.1511302164944E-01
(PID.TID 0000.0001) %MON dynstat_vvel_min             =  -1.2959861424699E-01
(PID.TID 0000.0001) %MON dynstat_vvel_mean            =   4.6511506032547E-03
(PID.TID 0000.0001) %MON dynstat_vvel_sd              =   1.5940318456336E-02
(PID.TID 0000.0001) %MON dynstat_vvel_del2            =   4.2693770974163E-03
(PID.TID 0000.0001) %MON dynstat_wvel_max             =   3.5504300260788E-04
(PID.TID 0000.0001) %MON dynstat_wvel_min             =  -4.3379769437439E-04
(PID.TID 0000.0001) %MON dynstat_wvel_mean            =  -2.8347597395737E-22
(PID.TID 0000.0001) %MON dynstat_wvel_sd              =   4.1437035987985E-05
(PID.TID 0000.0001) %MON dynstat_wvel_del2            =   1.5789013019258E-05
(PID.TID 0000.0001) %MON dynstat_theta_max            =   2.9576595204747E+01
(PID.TID 0000.0001) %MON dynstat_theta_min            =  -2.0394050892156E+00
(PID.TID 0000.0001) %MON dynstat_theta_mean           =   3.5994072327707E+00
(PID.TID 0000.0001) %MON dynstat_theta_sd             =   4.3689206089471E+00
(PID.TID 0000.0001) %MON dynstat_theta_del2           =   1.3880838444983E-01
(PID.TID 0000.0001) %MON dynstat_salt_max             =   3.7435093489310E+01
(PID.TID 0000.0001) %MON dynstat_salt_min             =   2.9794662480104E+01
(PID.TID 0000.0001) %MON dynstat_salt_mean            =   3.4716404418834E+01
(PID.TID 0000.0001) %MON dynstat_salt_sd              =   2.9566039144258E-01
(PID.TID 0000.0001) %MON dynstat_salt_del2            =   2.5522700882048E-02
(PID.TID 0000.0001) %MON advcfl_uvel_max              =   2.8361157493318E-02
(PID.TID 0000.0001) %MON advcfl_vvel_max              =   1.2589466118155E-02
(PID.TID 0000.0001) %MON advcfl_wvel_max              =   2.2481908658154E-01
(PID.TID 0000.0001) %MON advcfl_W_hf_max              =   1.9030767300148E-01
(PID.TID 0000.0001) %MON pe_b_mean                    =   1.4223454911435E-04
(PID.TID 0000.0001) %MON ke_max                       =   1.0616555645531E-02
(PID.TID 0000.0001) %MON ke_mean                      =   2.6060735369410E-04
(PID.TID 0000.0001) %MON ke_vol                       =   1.3226782436723E+18
(PID.TID 0000.0001) %MON vort_r_min                   =  -4.4248255377681E-07
(PID.TID 0000.0001) %MON vort_r_max                   =   7.6186070739309E-07
(PID.TID 0000.0001) %MON vort_a_mean                  =  -2.5205769508170E-05
(PID.TID 0000.0001) %MON vort_a_sd                    =   7.3401506117151E-05
(PID.TID 0000.0001) %MON vort_p_mean                  =  -3.1758669702028E-05
(PID.TID 0000.0001) %MON vort_p_sd                    =   1.3126019747943E-04
(PID.TID 0000.0001) %MON surfExpan_theta_mean         =   1.3296758929358E-04
(PID.TID 0000.0001) %MON surfExpan_salt_mean          =   8.9758492584011E-06
(PID.TID 0000.0001) // =======================================================
(PID.TID 0000.0001) // End MONITOR dynamic field statistics
(PID.TID 0000.0001) // =======================================================
time,SST,SSS,fu,fv,Q,E-P,i0,i1,a,b =   5.6160E+05  4.4544E-01  3.4516E+01 -3.8391E-02 -6.0938E-02  2.6539E+02  0.0000E+00    12     1  7.1667E-01  2.8333E-01
time,fu0,fu1,fu =   5.6160E+05 -4.5368E-02 -3.5633E-02 -3.8391E-02  7.1667E-01  2.8333E-01
 cg2d: Sum(rhs),rhsMax =   1.87880960789144E-13  9.51806764571327E+00
(PID.TID 0000.0001)                    cg2d_init_res =    9.45113265185929E-01
(PID.TID 0000.0001)                       cg2d_iters =    25
(PID.TID 0000.0001)                         cg2d_res =    6.20690420313242E-14
(PID.TID 0000.0001) // =======================================================
(PID.TID 0000.0001) // Begin MONITOR dynamic field statistics
(PID.TID 0000.0001) // =======================================================
(PID.TID 0000.0001) %MON time_tsnumber                =                    14
(PID.TID 0000.0001) %MON time_secondsf                =   6.0480000000000E+05
(PID.TID 0000.0001) %MON dynstat_eta_max              =   1.1485355435680E+00
(PID.TID 0000.0001) %MON dynstat_eta_min              =  -1.2548042721645E+00
(PID.TID 0000.0001) %MON dynstat_eta_mean             =   1.7698848712027E-16
(PID.TID 0000.0001) %MON dynstat_eta_sd               =   3.4773666021842E-01
(PID.TID 0000.0001) %MON dynstat_eta_del2             =   2.1998968962342E-02
(PID.TID 0000.0001) %MON dynstat_uvel_max             =   1.5328216186981E-01
(PID.TID 0000.0001) %MON dynstat_uvel_min             =  -1.5614301509586E-01
(PID.TID 0000.0001) %MON dynstat_uvel_mean            =  -9.7116385087146E-03
(PID.TID 0000.0001) %MON dynstat_uvel_sd              =   1.5671692653128E-02
(PID.TID 0000.0001) %MON dynstat_uvel_del2            =   4.1134682623265E-03
(PID.TID 0000.0001) %MON dynstat_vvel_max             =   1.2142408007299E-01
(PID.TID 0000.0001) %MON dynstat_vvel_min             =  -1.3456838953370E-01
(PID.TID 0000.0001) %MON dynstat_vvel_mean            =   4.3561215741427E-03
(PID.TID 0000.0001) %MON dynstat_vvel_sd              =   1.5851682542941E-02
(PID.TID 0000.0001) %MON dynstat_vvel_del2            =   4.4324655256268E-03
(PID.TID 0000.0001) %MON dynstat_wvel_max             =   3.6435778286982E-04
(PID.TID 0000.0001) %MON dynstat_wvel_min             =  -4.5417872182762E-04
(PID.TID 0000.0001) %MON dynstat_wvel_mean            =   8.0917924276685E-22
(PID.TID 0000.0001) %MON dynstat_wvel_sd              =   4.1623258699647E-05
(PID.TID 0000.0001) %MON dynstat_wvel_del2            =   1.6028653065375E-05
(PID.TID 0000.0001) %MON dynstat_theta_max            =   2.9551094168610E+01
(PID.TID 0000.0001) %MON dynstat_theta_min            =  -2.0351974972281E+00
(PID.TID 0000.0001) %MON dynstat_theta_mean           =   3.5981666767153E+00
(PID.TID 0000.0001) %MON dynstat_theta_sd             =   4.3650785850395E+00
(PID.TID 0000.0001) %MON dynstat_theta_del2           =   1.3811725482720E-01
(PID.TID 0000.0001) %MON dynstat_salt_max             =   3.7432983177770E+01
(PID.TID 0000.0001) %MON dynstat_salt_min             =   2.9796149611561E+01
(PID.TID 0000.0001) %MON dynstat_salt_mean            =   3.4716326194442E+01
(PID.TID 0000.0001) %MON dynstat_salt_sd              =   2.9559413103816E-01
(PID.TID 0000.0001) %MON dynstat_salt_del2            =   2.5466671792055E-02
(PID.TID 0000.0001) %MON advcfl_uvel_max              =   3.2411804031035E-02
(PID.TID 0000.0001) %MON advcfl_vvel_max              =   1.3072239934452E-02
(PID.TID 0000.0001) %MON advcfl_wvel_max              =   2.1573655508943E-01
(PID.TID 0000.0001) %MON advcfl_W_hf_max              =   1.8207111189859E-01
(PID.TID 0000.0001) %MON pe_b_mean                    =   1.5473271915269E-04
(PID.TID 0000.0001) %MON ke_max                       =   1.2003199982291E-02
(PID.TID 0000.0001) %MON ke_mean                      =   2.7575764030819E-04
(PID.TID 0000.0001) %MON ke_vol                       =   1.3226782436723E+18
(PID.TID 0000.0001) %MON vort_r_min                   =  -4.8129612415280E-07
(PID.TID 0000.0001) %MON vort_r_max                   =   7.9698721613022E-07
(PID.TID 0000.0001) %MON vort_a_mean                  =  -2.5205769517082E-05
(PID.TID 0000.0001) %MON vort_a_sd                    =   7.3401419396284E-05
(PID.TID 0000.0001) %MON vort_p_mean                  =  -3.1758669713256E-05
(PID.TID 0000.0001) %MON vort_p_sd                    =   1.3125977968097E-04
(PID.TID 0000.0001) %MON surfExpan_theta_mean         =   1.2074659268904E-04
(PID.TID 0000.0001) %MON surfExpan_salt_mean          =   7.7075904514017E-06
(PID.TID 0000.0001) // =======================================================
(PID.TID 0000.0001) // End MONITOR dynamic field statistics
(PID.TID 0000.0001) // =======================================================
time,SST,SSS,fu,fv,Q,E-P,i0,i1,a,b =   6.0480E+05  4.7561E-01  3.4527E+01 -3.8229E-02 -6.0721E-02  2.6541E+02  0.0000E+00    12     1  7.3333E-01  2.6667E-01
time,fu0,fu1,fu =   6.0480E+05 -4.5368E-02 -3.5633E-02 -3.8229E-02  7.3333E-01  2.6667E-01
 cg2d: Sum(rhs),rhsMax =   2.28527266554757E-13  1.00868019718989E+01
(PID.TID 0000.0001)                    cg2d_init_res =    8.67243375628190E-01
(PID.TID 0000.0001)                       cg2d_iters =    25
(PID.TID 0000.0001)                         cg2d_res =    5.35793870157401E-14
(PID.TID 0000.0001) // =======================================================
(PID.TID 0000.0001) // Begin MONITOR dynamic field statistics
(PID.TID 0000.0001) // =======================================================
(PID.TID 0000.0001) %MON time_tsnumber                =                    15
(PID.TID 0000.0001) %MON time_secondsf                =   6.4800000000000E+05
(PID.TID 0000.0001) %MON dynstat_eta_max              =   1.2150971531379E+00
(PID.TID 0000.0001) %MON dynstat_eta_min              =  -1.3020601728364E+00
(PID.TID 0000.0001) %MON dynstat_eta_mean             =   5.7437754718679E-17
(PID.TID 0000.0001) %MON dynstat_eta_sd               =   3.5979596705505E-01
(PID.TID 0000.0001) %MON dynstat_eta_del2             =   2.1424795656383E-02
(PID.TID 0000.0001) %MON dynstat_uvel_max             =   1.6200762688498E-01
(PID.TID 0000.0001) %MON dynstat_uvel_min             =  -1.5433012197518E-01
(PID.TID 0000.0001) %MON dynstat_uvel_mean            =  -1.0004446300097E-02
(PID.TID 0000.0001) %MON dynstat_uvel_sd              =   1.6593270822160E-02
(PID.TID 0000.0001) %MON dynstat_uvel_del2            =   4.2923919370809E-03
(PID.TID 0000.0001) %MON dynstat_vvel_max             =   1.3606226549395E-01
(PID.TID 0000.0001) %MON dynstat_vvel_min             =  -1.3776613845049E-01
(PID.TID 0000.0001) %MON dynstat_vvel_mean            =   4.0315332067935E-03
(PID.TID 0000.0001) %MON dynstat_vvel_sd              =   1.5760333192671E-02
(PID.TID 0000.0001) %MON dynstat_vvel_del2            =   4.5770307190309E-03
(PID.TID 0000.0001) %MON dynstat_wvel_max             =   3.7148202287590E-04
(PID.TID 0000.0001) %MON dynstat_wvel_min             =  -4.7123660137888E-04
(PID.TID 0000.0001) %MON dynstat_wvel_mean            =   1.4404434049324E-22
(PID.TID 0000.0001) %MON dynstat_wvel_sd              =   4.1606747513474E-05
(PID.TID 0000.0001) %MON dynstat_wvel_del2            =   1.6167259709041E-05
(PID.TID 0000.0001) %MON dynstat_theta_max            =   2.9542395231782E+01
(PID.TID 0000.0001) %MON dynstat_theta_min            =  -2.0208385034542E+00
(PID.TID 0000.0001) %MON dynstat_theta_mean           =   3.5970761448950E+00
(PID.TID 0000.0001) %MON dynstat_theta_sd             =   4.3614662628650E+00
(PID.TID 0000.0001) %MON dynstat_theta_del2           =   1.3750999251008E-01
(PID.TID 0000.0001) %MON dynstat_salt_max             =   3.7430915336348E+01
(PID.TID 0000.0001) %MON dynstat_salt_min             =   2.9797349653746E+01
(PID.TID 0000.0001) %MON dynstat_salt_mean            =   3.4716262412573E+01
(PID.TID 0000.0001) %MON dynstat_salt_sd              =   2.9552851350267E-01
(PID.TID 0000.0001) %MON dynstat_salt_del2            =   2.5416727740083E-02
(PID.TID 0000.0001) %MON advcfl_uvel_max              =   3.5305134337773E-02
(PID.TID 0000.0001) %MON advcfl_vvel_max              =   1.3382875598855E-02
(PID.TID 0000.0001) %MON advcfl_wvel_max              =   1.9084898054563E-01
(PID.TID 0000.0001) %MON advcfl_W_hf_max              =   1.5963714451061E-01
(PID.TID 0000.0001) %MON pe_b_mean                    =   1.6565089330784E-04
(PID.TID 0000.0001) %MON ke_max                       =   1.3368001581411E-02
(PID.TID 0000.0001) %MON ke_mean                      =   2.8937063268974E-04
(PID.TID 0000.0001) %MON ke_vol                       =   1.3226782436723E+18
(PID.TID 0000.0001) %MON vort_r_min                   =  -5.1855959119913E-07
(PID.TID 0000.0001) %MON vort_r_max                   =   8.1700955130937E-07
(PID.TID 0000.0001) %MON vort_a_mean                  =  -2.5205769502932E-05
(PID.TID 0000.0001) %MON vort_a_sd                    =   7.3401356308163E-05
(PID.TID 0000.0001) %MON vort_p_mean                  =  -3.1758669695428E-05
(PID.TID 0000.0001) %MON vort_p_sd                    =   1.3125946106998E-04
(PID.TID 0000.0001) %MON surfExpan_theta_mean         =   1.0787946165078E-04
(PID.TID 0000.0001) %MON surfExpan_salt_mean          =   6.4304433160328E-06
(PID.TID 0000.0001) // =======================================================
(PID.TID 0000.0001) // End MONITOR dynamic field statistics
(PID.TID 0000.0001) // =======================================================
time,SST,SSS,fu,fv,Q,E-P,i0,i1,a,b =   6.4800E+05  5.0579E-01  3.4539E+01 -3.8067E-02 -6.0505E-02  2.6543E+02  0.0000E+00    12     1  7.5000E-01  2.5000E-01
time,fu0,fu1,fu =   6.4800E+05 -4.5368E-02 -3.5633E-02 -3.8067E-02  7.5000E-01  2.5000E-01
 cg2d: Sum(rhs),rhsMax =   1.85367346472454E-13  1.04478985847005E+01
(PID.TID 0000.0001)                    cg2d_init_res =    8.17030638442998E-01
(PID.TID 0000.0001)                       cg2d_iters =    25
(PID.TID 0000.0001)                         cg2d_res =    4.55836518204661E-14
(PID.TID 0000.0001) // =======================================================
(PID.TID 0000.0001) // Begin MONITOR dynamic field statistics
(PID.TID 0000.0001) // =======================================================
(PID.TID 0000.0001) %MON time_tsnumber                =                    16
(PID.TID 0000.0001) %MON time_secondsf                =   6.9120000000000E+05
(PID.TID 0000.0001) %MON dynstat_eta_max              =   1.2574087867096E+00
(PID.TID 0000.0001) %MON dynstat_eta_min              =  -1.3029341982534E+00
(PID.TID 0000.0001) %MON dynstat_eta_mean             =   6.0575664013840E-17
(PID.TID 0000.0001) %MON dynstat_eta_sd               =   3.6963061231261E-01
(PID.TID 0000.0001) %MON dynstat_eta_del2             =   2.0994900966758E-02
(PID.TID 0000.0001) %MON dynstat_uvel_max             =   1.7017960994689E-01
(PID.TID 0000.0001) %MON dynstat_uvel_min             =  -1.5000525549260E-01
(PID.TID 0000.0001) %MON dynstat_uvel_mean            =  -1.0166171034549E-02
(PID.TID 0000.0001) %MON dynstat_uvel_sd              =   1.7422646337998E-02
(PID.TID 0000.0001) %MON dynstat_uvel_del2            =   4.4555741808148E-03
(PID.TID 0000.0001) %MON dynstat_vvel_max             =   1.4856730985174E-01
(PID.TID 0000.0001) %MON dynstat_vvel_min             =  -1.3910729531375E-01
(PID.TID 0000.0001) %MON dynstat_vvel_mean            =   3.6977195058690E-03
(PID.TID 0000.0001) %MON dynstat_vvel_sd              =   1.5688019456745E-02
(PID.TID 0000.0001) %MON dynstat_vvel_del2            =   4.7063313623383E-03
(PID.TID 0000.0001) %MON dynstat_wvel_max             =   3.7674133965093E-04
(PID.TID 0000.0001) %MON dynstat_wvel_min             =  -4.8523896783573E-04
(PID.TID 0000.0001) %MON dynstat_wvel_mean            =   3.8630505515878E-22
(PID.TID 0000.0001) %MON dynstat_wvel_sd              =   4.1413500795841E-05
(PID.TID 0000.0001) %MON dynstat_wvel_del2            =   1.6220031289602E-05
(PID.TID 0000.0001) %MON dynstat_theta_max            =   2.9526691834251E+01
(PID.TID 0000.0001) %MON dynstat_theta_min            =  -1.9919558894995E+00
(PID.TID 0000.0001) %MON dynstat_theta_mean           =   3.5961364539169E+00
(PID.TID 0000.0001) %MON dynstat_theta_sd             =   4.3581146865806E+00
(PID.TID 0000.0001) %MON dynstat_theta_del2           =   1.3697192649838E-01
(PID.TID 0000.0001) %MON dynstat_salt_max             =   3.7428927415916E+01
(PID.TID 0000.0001) %MON dynstat_salt_min             =   2.9798282398952E+01
(PID.TID 0000.0001) %MON dynstat_salt_mean            =   3.4716212608040E+01
(PID.TID 0000.0001) %MON dynstat_salt_sd              =   2.9546409489731E-01
(PID.TID 0000.0001) %MON dynstat_salt_del2            =   2.5374118772000E-02
(PID.TID 0000.0001) %MON advcfl_uvel_max              =   3.6689459994003E-02
(PID.TID 0000.0001) %MON advcfl_vvel_max              =   1.4432122785504E-02
(PID.TID 0000.0001) %MON advcfl_wvel_max              =   1.7538773735801E-01
(PID.TID 0000.0001) %MON advcfl_W_hf_max              =   1.4544114859685E-01
(PID.TID 0000.0001) %MON pe_b_mean                    =   1.7483044525393E-04
(PID.TID 0000.0001) %MON ke_max                       =   1.4684231750312E-02
(PID.TID 0000.0001) %MON ke_mean                      =   3.0149047447131E-04
(PID.TID 0000.0001) %MON ke_vol                       =   1.3226782436723E+18
(PID.TID 0000.0001) %MON vort_r_min                   =  -5.5363633372215E-07
(PID.TID 0000.0001) %MON vort_r_max                   =   8.2105395618254E-07
(PID.TID 0000.0001) %MON vort_a_mean                  =  -2.5205769467977E-05
(PID.TID 0000.0001) %MON vort_a_sd                    =   7.3401317166040E-05
(PID.TID 0000.0001) %MON vort_p_mean                  =  -3.1758669651385E-05
(PID.TID 0000.0001) %MON vort_p_sd                    =   1.3125924520522E-04
(PID.TID 0000.0001) %MON surfExpan_theta_mean         =   9.4716353509573E-05
(PID.TID 0000.0001) %MON surfExpan_salt_mean          =   5.1751031259680E-06
(PID.TID 0000.0001) // =======================================================
(PID.TID 0000.0001) // End MONITOR dynamic field statistics
(PID.TID 0000.0001) // =======================================================
time,SST,SSS,fu,fv,Q,E-P,i0,i1,a,b =   6.9120E+05  5.3596E-01  3.4551E+01 -3.7904E-02 -6.0288E-02  2.6546E+02  0.0000E+00    12     1  7.6667E-01  2.3333E-01
time,fu0,fu1,fu =   6.9120E+05 -4.5368E-02 -3.5633E-02 -3.7904E-02  7.6667E-01  2.3333E-01
 cg2d: Sum(rhs),rhsMax =   2.25130677988794E-13  1.05953427007010E+01
(PID.TID 0000.0001)                    cg2d_init_res =    7.88731652893724E-01
(PID.TID 0000.0001)                       cg2d_iters =    25
(PID.TID 0000.0001)                         cg2d_res =    3.90314255786988E-14
(PID.TID 0000.0001) // =======================================================
(PID.TID 0000.0001) // Begin MONITOR dynamic field statistics
(PID.TID 0000.0001) // =======================================================
(PID.TID 0000.0001) %MON time_tsnumber                =                    17
(PID.TID 0000.0001) %MON time_secondsf                =   7.3440000000000E+05
(PID.TID 0000.0001) %MON dynstat_eta_max              =   1.2748707834715E+00
(PID.TID 0000.0001) %MON dynstat_eta_min              =  -1.2907216572078E+00
(PID.TID 0000.0001) %MON dynstat_eta_mean             =   3.3132395272665E-17
(PID.TID 0000.0001) %MON dynstat_eta_sd               =   3.7736015892371E-01
(PID.TID 0000.0001) %MON dynstat_eta_del2             =   2.0524475452239E-02
(PID.TID 0000.0001) %MON dynstat_uvel_max             =   1.7774490651743E-01
(PID.TID 0000.0001) %MON dynstat_uvel_min             =  -1.4926336333097E-01
(PID.TID 0000.0001) %MON dynstat_uvel_mean            =  -1.0201741132977E-02
(PID.TID 0000.0001) %MON dynstat_uvel_sd              =   1.8160924877619E-02
(PID.TID 0000.0001) %MON dynstat_uvel_del2            =   4.6020512591945E-03
(PID.TID 0000.0001) %MON dynstat_vvel_max             =   1.5778040583614E-01
(PID.TID 0000.0001) %MON dynstat_vvel_min             =  -1.3918944811973E-01
(PID.TID 0000.0001) %MON dynstat_vvel_mean            =   3.3734529656535E-03
(PID.TID 0000.0001) %MON dynstat_vvel_sd              =   1.5646817532318E-02
(PID.TID 0000.0001) %MON dynstat_vvel_del2            =   4.8209120305533E-03
(PID.TID 0000.0001) %MON dynstat_wvel_max             =   3.8030668546127E-04
(PID.TID 0000.0001) %MON dynstat_wvel_min             =  -4.9520204181910E-04
(PID.TID 0000.0001) %MON dynstat_wvel_mean            =   5.8796716432835E-22
(PID.TID 0000.0001) %MON dynstat_wvel_sd              =   4.1066129842633E-05
(PID.TID 0000.0001) %MON dynstat_wvel_del2            =   1.6200425645219E-05
(PID.TID 0000.0001) %MON dynstat_theta_max            =   2.9503598297215E+01
(PID.TID 0000.0001) %MON dynstat_theta_min            =  -1.9537477887811E+00
(PID.TID 0000.0001) %MON dynstat_theta_mean           =   3.5953452556552E+00
(PID.TID 0000.0001) %MON dynstat_theta_sd             =   4.3550515019396E+00
(PID.TID 0000.0001) %MON dynstat_theta_del2           =   1.3650058072018E-01
(PID.TID 0000.0001) %MON dynstat_salt_max             =   3.7427216109477E+01
(PID.TID 0000.0001) %MON dynstat_salt_min             =   2.9798974427378E+01
(PID.TID 0000.0001) %MON dynstat_salt_mean            =   3.4716176125548E+01
(PID.TID 0000.0001) %MON dynstat_salt_sd              =   2.9540165447320E-01
(PID.TID 0000.0001) %MON dynstat_salt_del2            =   2.5338743551476E-02
(PID.TID 0000.0001) %MON advcfl_uvel_max              =   3.6321893761703E-02
(PID.TID 0000.0001) %MON advcfl_vvel_max              =   1.5327101180241E-02
(PID.TID 0000.0001) %MON advcfl_wvel_max              =   1.8233824504565E-01
(PID.TID 0000.0001) %MON advcfl_W_hf_max              =   1.4646708904776E-01
(PID.TID 0000.0001) %MON pe_b_mean                    =   1.8221884622840E-04
(PID.TID 0000.0001) %MON ke_max                       =   1.5930332431763E-02
(PID.TID 0000.0001) %MON ke_mean                      =   3.1214573097129E-04
(PID.TID 0000.0001) %MON ke_vol                       =   1.3226782436723E+18
(PID.TID 0000.0001) %MON vort_r_min                   =  -5.8595818743624E-07
(PID.TID 0000.0001) %MON vort_r_max                   =   8.0862425779914E-07
(PID.TID 0000.0001) %MON vort_a_mean                  =  -2.5205769416497E-05
(PID.TID 0000.0001) %MON vort_a_sd                    =   7.3401301437750E-05
(PID.TID 0000.0001) %MON vort_p_mean                  =  -3.1758669586522E-05
(PID.TID 0000.0001) %MON vort_p_sd                    =   1.3125912904898E-04
(PID.TID 0000.0001) %MON surfExpan_theta_mean         =   8.1561531191413E-05
(PID.TID 0000.0001) %MON surfExpan_salt_mean          =   3.9638061505539E-06
(PID.TID 0000.0001) // =======================================================
(PID.TID 0000.0001) // End MONITOR dynamic field statistics
(PID.TID 0000.0001) // =======================================================
time,SST,SSS,fu,fv,Q,E-P,i0,i1,a,b =   7.3440E+05  5.6614E-01  3.4563E+01 -3.7742E-02 -6.0072E-02  2.6548E+02  0.0000E+00    12     1  7.8333E-01  2.1667E-01
time,fu0,fu1,fu =   7.3440E+05 -4.5368E-02 -3.5633E-02 -3.7742E-02  7.8333E-01  2.1667E-01
 cg2d: Sum(rhs),rhsMax =  -6.42697700614647E-14  1.05352089710681E+01
(PID.TID 0000.0001)                    cg2d_init_res =    7.78419646121007E-01
(PID.TID 0000.0001)                       cg2d_iters =    24
(PID.TID 0000.0001)                         cg2d_res =    8.31053319420919E-14
(PID.TID 0000.0001) // =======================================================
(PID.TID 0000.0001) // Begin MONITOR dynamic field statistics
(PID.TID 0000.0001) // =======================================================
(PID.TID 0000.0001) %MON time_tsnumber                =                    18
(PID.TID 0000.0001) %MON time_secondsf                =   7.7760000000000E+05
(PID.TID 0000.0001) %MON dynstat_eta_max              =   1.2682928986698E+00
(PID.TID 0000.0001) %MON dynstat_eta_min              =  -1.3239455285431E+00
(PID.TID 0000.0001) %MON dynstat_eta_mean             =   1.2945080289835E-16
(PID.TID 0000.0001) %MON dynstat_eta_sd               =   3.8315593026215E-01
(PID.TID 0000.0001) %MON dynstat_eta_del2             =   2.0036454376859E-02
(PID.TID 0000.0001) %MON dynstat_uvel_max             =   1.8463748835196E-01
(PID.TID 0000.0001) %MON dynstat_uvel_min             =  -1.4757367224348E-01
(PID.TID 0000.0001) %MON dynstat_uvel_mean            =  -1.0120073238198E-02
(PID.TID 0000.0001) %MON dynstat_uvel_sd              =   1.8811089229031E-02
(PID.TID 0000.0001) %MON dynstat_uvel_del2            =   4.7333774683793E-03
(PID.TID 0000.0001) %MON dynstat_vvel_max             =   1.6303094450925E-01
(PID.TID 0000.0001) %MON dynstat_vvel_min             =  -1.4241239671332E-01
(PID.TID 0000.0001) %MON dynstat_vvel_mean            =   3.0750091351600E-03
(PID.TID 0000.0001) %MON dynstat_vvel_sd              =   1.5639969187024E-02
(PID.TID 0000.0001) %MON dynstat_vvel_del2            =   4.9225562822060E-03
(PID.TID 0000.0001) %MON dynstat_wvel_max             =   3.8222626512825E-04
(PID.TID 0000.0001) %MON dynstat_wvel_min             =  -5.0146848238891E-04
(PID.TID 0000.0001) %MON dynstat_wvel_mean            =  -2.7168700807728E-22
(PID.TID 0000.0001) %MON dynstat_wvel_sd              =   4.0586442665205E-05
(PID.TID 0000.0001) %MON dynstat_wvel_del2            =   1.6102842095343E-05
(PID.TID 0000.0001) %MON dynstat_theta_max            =   2.9473499848586E+01
(PID.TID 0000.0001) %MON dynstat_theta_min            =  -1.9379241036665E+00
(PID.TID 0000.0001) %MON dynstat_theta_mean           =   3.5946974427626E+00
(PID.TID 0000.0001) %MON dynstat_theta_sd             =   4.3523010379137E+00
(PID.TID 0000.0001) %MON dynstat_theta_del2           =   1.3609149191550E-01
(PID.TID 0000.0001) %MON dynstat_salt_max             =   3.7425735813509E+01
(PID.TID 0000.0001) %MON dynstat_salt_min             =   2.9799457938398E+01
(PID.TID 0000.0001) %MON dynstat_salt_mean            =   3.4716152148614E+01
(PID.TID 0000.0001) %MON dynstat_salt_sd              =   2.9534132498728E-01
(PID.TID 0000.0001) %MON dynstat_salt_del2            =   2.5309663572994E-02
(PID.TID 0000.0001) %MON advcfl_uvel_max              =   3.4101498368920E-02
(PID.TID 0000.0001) %MON advcfl_vvel_max              =   1.5837148908076E-02
(PID.TID 0000.0001) %MON advcfl_wvel_max              =   1.8821404242862E-01
(PID.TID 0000.0001) %MON advcfl_W_hf_max              =   1.5172401008788E-01
(PID.TID 0000.0001) %MON pe_b_mean                    =   1.8785912863232E-04
(PID.TID 0000.0001) %MON ke_max                       =   1.7090661924815E-02
(PID.TID 0000.0001) %MON ke_mean                      =   3.2135232060974E-04
(PID.TID 0000.0001) %MON ke_vol                       =   1.3226782436723E+18
(PID.TID 0000.0001) %MON vort_r_min                   =  -6.1505833352645E-07
(PID.TID 0000.0001) %MON vort_r_max                   =   7.7959667564519E-07
(PID.TID 0000.0001) %MON vort_a_mean                  =  -2.5205769353998E-05
(PID.TID 0000.0001) %MON vort_a_sd                    =   7.3401307861829E-05
(PID.TID 0000.0001) %MON vort_p_mean                  =  -3.1758669507775E-05
(PID.TID 0000.0001) %MON vort_p_sd                    =   1.3125910420967E-04
(PID.TID 0000.0001) %MON surfExpan_theta_mean         =   6.8708553149412E-05
(PID.TID 0000.0001) %MON surfExpan_salt_mean          =   2.8182215184317E-06
(PID.TID 0000.0001) // =======================================================
(PID.TID 0000.0001) // End MONITOR dynamic field statistics
(PID.TID 0000.0001) // =======================================================
time,SST,SSS,fu,fv,Q,E-P,i0,i1,a,b =   7.7760E+05  5.9632E-01  3.4574E+01 -3.7580E-02 -5.9855E-02  2.6550E+02  0.0000E+00    12     1  8.0000E-01  2.0000E-01
time,fu0,fu1,fu =   7.7760E+05 -4.5368E-02 -3.5633E-02 -3.7580E-02  8.0000E-01  2.0000E-01
 cg2d: Sum(rhs),rhsMax =   5.63233487627102E-13  1.02854226332889E+01
(PID.TID 0000.0001)                    cg2d_init_res =    7.83476920640717E-01
(PID.TID 0000.0001)                       cg2d_iters =    25
(PID.TID 0000.0001)                         cg2d_res =    2.89423873793396E-14
(PID.TID 0000.0001) // =======================================================
(PID.TID 0000.0001) // Begin MONITOR dynamic field statistics
(PID.TID 0000.0001) // =======================================================
(PID.TID 0000.0001) %MON time_tsnumber                =                    19
(PID.TID 0000.0001) %MON time_secondsf                =   8.2080000000000E+05
(PID.TID 0000.0001) %MON dynstat_eta_max              =   1.2398174595449E+00
(PID.TID 0000.0001) %MON dynstat_eta_min              =  -1.3183821529756E+00
(PID.TID 0000.0001) %MON dynstat_eta_mean             =   6.7772847861017E-17
(PID.TID 0000.0001) %MON dynstat_eta_sd               =   3.8722684286624E-01
(PID.TID 0000.0001) %MON dynstat_eta_del2             =   1.9596442107217E-02
(PID.TID 0000.0001) %MON dynstat_uvel_max             =   1.9077797687566E-01
(PID.TID 0000.0001) %MON dynstat_uvel_min             =  -1.4695700606195E-01
(PID.TID 0000.0001) %MON dynstat_uvel_mean            =  -9.9331477306992E-03
(PID.TID 0000.0001) %MON dynstat_uvel_sd              =   1.9377114311901E-02
(PID.TID 0000.0001) %MON dynstat_uvel_del2            =   4.8477815231287E-03
(PID.TID 0000.0001) %MON dynstat_vvel_max             =   1.6383021687989E-01
(PID.TID 0000.0001) %MON dynstat_vvel_min             =  -1.4406034907817E-01
(PID.TID 0000.0001) %MON dynstat_vvel_mean            =   2.8155162359598E-03
(PID.TID 0000.0001) %MON dynstat_vvel_sd              =   1.5664007807237E-02
(PID.TID 0000.0001) %MON dynstat_vvel_del2            =   5.0117912975622E-03
(PID.TID 0000.0001) %MON dynstat_wvel_max             =   3.8248375249272E-04
(PID.TID 0000.0001) %MON dynstat_wvel_min             =  -5.0420800731237E-04
(PID.TID 0000.0001) %MON dynstat_wvel_mean            =  -1.5068366969481E-23
(PID.TID 0000.0001) %MON dynstat_wvel_sd              =   3.9996482162667E-05
(PID.TID 0000.0001) %MON dynstat_wvel_del2            =   1.5933720248503E-05
(PID.TID 0000.0001) %MON dynstat_theta_max            =   2.9456764360603E+01
(PID.TID 0000.0001) %MON dynstat_theta_min            =  -1.9330911074837E+00
(PID.TID 0000.0001) %MON dynstat_theta_mean           =   3.5941849544293E+00
(PID.TID 0000.0001) %MON dynstat_theta_sd             =   4.3498819329096E+00
(PID.TID 0000.0001) %MON dynstat_theta_del2           =   1.3573570196585E-01
(PID.TID 0000.0001) %MON dynstat_salt_max             =   3.7424439547495E+01
(PID.TID 0000.0001) %MON dynstat_salt_min             =   2.9799768784671E+01
(PID.TID 0000.0001) %MON dynstat_salt_mean            =   3.4716139638906E+01
(PID.TID 0000.0001) %MON dynstat_salt_sd              =   2.9528453672875E-01
(PID.TID 0000.0001) %MON dynstat_salt_del2            =   2.5286825636268E-02
(PID.TID 0000.0001) %MON advcfl_uvel_max              =   3.0090570675486E-02
(PID.TID 0000.0001) %MON advcfl_vvel_max              =   1.5914791809490E-02
(PID.TID 0000.0001) %MON advcfl_wvel_max              =   1.8863404682771E-01
(PID.TID 0000.0001) %MON advcfl_W_hf_max              =   1.6361081126262E-01
(PID.TID 0000.0001) %MON pe_b_mean                    =   1.9187222456682E-04
(PID.TID 0000.0001) %MON ke_max                       =   1.8155266440025E-02
(PID.TID 0000.0001) %MON ke_mean                      =   3.2912117864646E-04
(PID.TID 0000.0001) %MON ke_vol                       =   1.3226782436723E+18
(PID.TID 0000.0001) %MON vort_r_min                   =  -6.4060539698544E-07
(PID.TID 0000.0001) %MON vort_r_max                   =   7.3424408987449E-07
(PID.TID 0000.0001) %MON vort_a_mean                  =  -2.5205769286434E-05
(PID.TID 0000.0001) %MON vort_a_sd                    =   7.3401334597783E-05
(PID.TID 0000.0001) %MON vort_p_mean                  =  -3.1758669422645E-05
(PID.TID 0000.0001) %MON vort_p_sd                    =   1.3125915856359E-04
(PID.TID 0000.0001) %MON surfExpan_theta_mean         =   5.6384744765793E-05
(PID.TID 0000.0001) %MON surfExpan_salt_mean          =   1.7477642697003E-06
(PID.TID 0000.0001) // =======================================================
(PID.TID 0000.0001) // End MONITOR dynamic field statistics
(PID.TID 0000.0001) // =======================================================
time,SST,SSS,fu,fv,Q,E-P,i0,i1,a,b =   8.2080E+05  6.2649E-01  3.4586E+01 -3.7418E-02 -5.9638E-02  2.6552E+02  0.0000E+00    12     1  8.1667E-01  1.8333E-01
time,fu0,fu1,fu =   8.2080E+05 -4.5368E-02 -3.5633E-02 -3.7418E-02  8.1667E-01  1.8333E-01
 cg2d: Sum(rhs),rhsMax =   4.00004682155064E-13  9.89942675036049E+00
(PID.TID 0000.0001)                    cg2d_init_res =    8.00116490467011E-01
(PID.TID 0000.0001)                       cg2d_iters =    25
(PID.TID 0000.0001)                         cg2d_res =    2.72752602802227E-14
(PID.TID 0000.0001) // =======================================================
(PID.TID 0000.0001) // Begin MONITOR dynamic field statistics
(PID.TID 0000.0001) // =======================================================
(PID.TID 0000.0001) %MON time_tsnumber                =                    20
(PID.TID 0000.0001) %MON time_secondsf                =   8.6400000000000E+05
(PID.TID 0000.0001) %MON dynstat_eta_max              =   1.1926923736770E+00
(PID.TID 0000.0001) %MON dynstat_eta_min              =  -1.2768092049672E+00
(PID.TID 0000.0001) %MON dynstat_eta_mean             =  -1.1005197419058E-16
(PID.TID 0000.0001) %MON dynstat_eta_sd               =   3.8980467544592E-01
(PID.TID 0000.0001) %MON dynstat_eta_del2             =   1.9265001949093E-02
(PID.TID 0000.0001) %MON dynstat_uvel_max             =   1.9607684171953E-01
(PID.TID 0000.0001) %MON dynstat_uvel_min             =  -1.5362269427030E-01
(PID.TID 0000.0001) %MON dynstat_uvel_mean            =  -9.6550732082455E-03
(PID.TID 0000.0001) %MON dynstat_uvel_sd              =   1.9863128877775E-02
(PID.TID 0000.0001) %MON dynstat_uvel_del2            =   4.9480478020986E-03
(PID.TID 0000.0001) %MON dynstat_vvel_max             =   1.5990981411105E-01
(PID.TID 0000.0001) %MON dynstat_vvel_min             =  -1.4412949997704E-01
(PID.TID 0000.0001) %MON dynstat_vvel_mean            =   2.6046035407234E-03
(PID.TID 0000.0001) %MON dynstat_vvel_sd              =   1.5711596736338E-02
(PID.TID 0000.0001) %MON dynstat_vvel_del2            =   5.0886233702840E-03
(PID.TID 0000.0001) %MON dynstat_wvel_max             =   3.8105316622864E-04
(PID.TID 0000.0001) %MON dynstat_wvel_min             =  -5.0340447440177E-04
(PID.TID 0000.0001) %MON dynstat_wvel_mean            =  -1.3046627292890E-22
(PID.TID 0000.0001) %MON dynstat_wvel_sd              =   3.9318461876890E-05
(PID.TID 0000.0001) %MON dynstat_wvel_del2            =   1.5713229497933E-05
(PID.TID 0000.0001) %MON dynstat_theta_max            =   2.9453918402030E+01
(PID.TID 0000.0001) %MON dynstat_theta_min            =  -1.9299555770715E+00
(PID.TID 0000.0001) %MON dynstat_theta_mean           =   3.5937980743957E+00
(PID.TID 0000.0001) %MON dynstat_theta_sd             =   4.3478065952522E+00
(PID.TID 0000.0001) %MON dynstat_theta_del2           =   1.3543791097261E-01
(PID.TID 0000.0001) %MON dynstat_salt_max             =   3.7423271958535E+01
(PID.TID 0000.0001) %MON dynstat_salt_min             =   2.9799944615082E+01
(PID.TID 0000.0001) %MON dynstat_salt_mean            =   3.4716137532815E+01
(PID.TID 0000.0001) %MON dynstat_salt_sd              =   2.9523128995215E-01
(PID.TID 0000.0001) %MON dynstat_salt_del2            =   2.5269135977736E-02
(PID.TID 0000.0001) %MON advcfl_uvel_max              =   3.0382303392261E-02
(PID.TID 0000.0001) %MON advcfl_vvel_max              =   1.5533956118348E-02
(PID.TID 0000.0001) %MON advcfl_wvel_max              =   1.8316814029412E-01
(PID.TID 0000.0001) %MON advcfl_W_hf_max              =   1.6675220185845E-01
(PID.TID 0000.0001) %MON pe_b_mean                    =   1.9443537764146E-04
(PID.TID 0000.0001) %MON ke_max                       =   1.9119040345707E-02
(PID.TID 0000.0001) %MON ke_mean                      =   3.3546803663485E-04
(PID.TID 0000.0001) %MON ke_vol                       =   1.3226782436723E+18
(PID.TID 0000.0001) %MON vort_r_min                   =  -6.6243243101588E-07
(PID.TID 0000.0001) %MON vort_r_max                   =   6.7328485436162E-07
(PID.TID 0000.0001) %MON vort_a_mean                  =  -2.5205769219529E-05
(PID.TID 0000.0001) %MON vort_a_sd                    =   7.3401379382224E-05
(PID.TID 0000.0001) %MON vort_p_mean                  =  -3.1758669338346E-05
(PID.TID 0000.0001) %MON vort_p_sd                    =   1.3125927788426E-04
(PID.TID 0000.0001) %MON surfExpan_theta_mean         =   4.4824290888809E-05
(PID.TID 0000.0001) %MON surfExpan_salt_mean          =   7.6963952517136E-07
(PID.TID 0000.0001) // =======================================================
(PID.TID 0000.0001) // End MONITOR dynamic field statistics
(PID.TID 0000.0001) // =======================================================
time,SST,SSS,fu,fv,Q,E-P,i0,i1,a,b =   8.6400E+05  6.5667E-01  3.4598E+01 -3.7255E-02 -5.9422E-02  2.6555E+02  0.0000E+00    12     1  8.3333E-01  1.6667E-01
time,fu0,fu1,fu =   8.6400E+05 -4.5368E-02 -3.5633E-02 -3.7255E-02  8.3333E-01  1.6667E-01
 cg2d: Sum(rhs),rhsMax =  -2.11450648657241E-13  1.09313661371494E+01
(PID.TID 0000.0001)                    cg2d_init_res =    7.11714660442693E-01
(PID.TID 0000.0001)                       cg2d_iters =    25
(PID.TID 0000.0001)                         cg2d_res =    3.01288884320641E-14
(PID.TID 0000.0001) // =======================================================
(PID.TID 0000.0001) // Begin MONITOR dynamic field statistics
(PID.TID 0000.0001) // =======================================================
(PID.TID 0000.0001) %MON time_tsnumber                =                    21
(PID.TID 0000.0001) %MON time_secondsf                =   9.0720000000000E+05
(PID.TID 0000.0001) %MON dynstat_eta_max              =   1.3007185096295E+00
(PID.TID 0000.0001) %MON dynstat_eta_min              =  -1.2131762190044E+00
(PID.TID 0000.0001) %MON dynstat_eta_mean             =   1.6633041589360E-16
(PID.TID 0000.0001) %MON dynstat_eta_sd               =   3.9112964133073E-01
(PID.TID 0000.0001) %MON dynstat_eta_del2             =   1.9078483667363E-02
(PID.TID 0000.0001) %MON dynstat_uvel_max             =   2.0043960013847E-01
(PID.TID 0000.0001) %MON dynstat_uvel_min             =  -1.6097227218509E-01
(PID.TID 0000.0001) %MON dynstat_uvel_mean            =  -9.3011976640418E-03
(PID.TID 0000.0001) %MON dynstat_uvel_sd              =   2.0272777768541E-02
(PID.TID 0000.0001) %MON dynstat_uvel_del2            =   5.0362132554952E-03
(PID.TID 0000.0001) %MON dynstat_vvel_max             =   1.5123383417140E-01
(PID.TID 0000.0001) %MON dynstat_vvel_min             =  -1.4339181151189E-01
(PID.TID 0000.0001) %MON dynstat_vvel_mean            =   2.4483210734747E-03
(PID.TID 0000.0001) %MON dynstat_vvel_sd              =   1.5774382098003E-02
(PID.TID 0000.0001) %MON dynstat_vvel_del2            =   5.1546202645923E-03
(PID.TID 0000.0001) %MON dynstat_wvel_max             =   3.7793543785784E-04
(PID.TID 0000.0001) %MON dynstat_wvel_min             =  -4.9896312169628E-04
(PID.TID 0000.0001) %MON dynstat_wvel_mean            =  -4.0382061008527E-22
(PID.TID 0000.0001) %MON dynstat_wvel_sd              =   3.8574237636288E-05
(PID.TID 0000.0001) %MON dynstat_wvel_del2            =   1.5451793545065E-05
(PID.TID 0000.0001) %MON dynstat_theta_max            =   2.9455893679407E+01
(PID.TID 0000.0001) %MON dynstat_theta_min            =  -1.9286646477377E+00
(PID.TID 0000.0001) %MON dynstat_theta_mean           =   3.5935246841776E+00
(PID.TID 0000.0001) %MON dynstat_theta_sd             =   4.3460785066678E+00
(PID.TID 0000.0001) %MON dynstat_theta_del2           =   1.3521070766650E-01
(PID.TID 0000.0001) %MON dynstat_salt_max             =   3.7422184122342E+01
(PID.TID 0000.0001) %MON dynstat_salt_min             =   2.9800023117276E+01
(PID.TID 0000.0001) %MON dynstat_salt_mean            =   3.4716144528621E+01
(PID.TID 0000.0001) %MON dynstat_salt_sd              =   2.9518124433800E-01
(PID.TID 0000.0001) %MON dynstat_salt_del2            =   2.5255350748997E-02
(PID.TID 0000.0001) %MON advcfl_uvel_max              =   3.0395923057218E-02
(PID.TID 0000.0001) %MON advcfl_vvel_max              =   1.4691154240206E-02
(PID.TID 0000.0001) %MON advcfl_wvel_max              =   1.7166046488236E-01
(PID.TID 0000.0001) %MON advcfl_W_hf_max              =   1.6291637527355E-01
(PID.TID 0000.0001) %MON pe_b_mean                    =   1.9575941550233E-04
(PID.TID 0000.0001) %MON ke_max                       =   1.9980507963300E-02
(PID.TID 0000.0001) %MON ke_mean                      =   3.4042307379058E-04
(PID.TID 0000.0001) %MON ke_vol                       =   1.3226782436723E+18
(PID.TID 0000.0001) %MON vort_r_min                   =  -6.8055437821061E-07
(PID.TID 0000.0001) %MON vort_r_max                   =   6.0920329030775E-07
(PID.TID 0000.0001) %MON vort_a_mean                  =  -2.5205769158280E-05
(PID.TID 0000.0001) %MON vort_a_sd                    =   7.3401439680258E-05
(PID.TID 0000.0001) %MON vort_p_mean                  =  -3.1758669261174E-05
(PID.TID 0000.0001) %MON vort_p_sd                    =   1.3125944734007E-04
(PID.TID 0000.0001) %MON surfExpan_theta_mean         =   3.4216884252006E-05
(PID.TID 0000.0001) %MON surfExpan_salt_mean          =  -1.0379649869200E-07
(PID.TID 0000.0001) // =======================================================
(PID.TID 0000.0001) // End MONITOR dynamic field statistics
(PID.TID 0000.0001) // =======================================================
time,SST,SSS,fu,fv,Q,E-P,i0,i1,a,b =   9.0720E+05  6.8684E-01  3.4609E+01 -3.7093E-02 -5.9205E-02  2.6557E+02  0.0000E+00    12     1  8.5000E-01  1.5000E-01
time,fu0,fu1,fu =   9.0720E+05 -4.5368E-02 -3.5633E-02 -3.7093E-02  8.5000E-01  1.5000E-01
 cg2d: Sum(rhs),rhsMax =  -1.62474200759988E-14  1.18621214870374E+01
(PID.TID 0000.0001)                    cg2d_init_res =    6.43345654034898E-01
(PID.TID 0000.0001)                       cg2d_iters =    25
(PID.TID 0000.0001)                         cg2d_res =    3.11563579587918E-14
(PID.TID 0000.0001) // =======================================================
(PID.TID 0000.0001) // Begin MONITOR dynamic field statistics
(PID.TID 0000.0001) // =======================================================
(PID.TID 0000.0001) %MON time_tsnumber                =                    22
(PID.TID 0000.0001) %MON time_secondsf                =   9.5040000000000E+05
(PID.TID 0000.0001) %MON dynstat_eta_max              =   1.4078293745500E+00
(PID.TID 0000.0001) %MON dynstat_eta_min              =  -1.1673223290588E+00
(PID.TID 0000.0001) %MON dynstat_eta_mean             =  -4.3328414071756E-17
(PID.TID 0000.0001) %MON dynstat_eta_sd               =   3.9143742446886E-01
(PID.TID 0000.0001) %MON dynstat_eta_del2             =   1.8988775864687E-02
(PID.TID 0000.0001) %MON dynstat_uvel_max             =   2.0377215641373E-01
(PID.TID 0000.0001) %MON dynstat_uvel_min             =  -1.7728210359536E-01
(PID.TID 0000.0001) %MON dynstat_uvel_mean            =  -8.8873339059963E-03
(PID.TID 0000.0001) %MON dynstat_uvel_sd              =   2.0608893409480E-02
(PID.TID 0000.0001) %MON dynstat_uvel_del2            =   5.1117710106538E-03
(PID.TID 0000.0001) %MON dynstat_vvel_max             =   1.4205322944290E-01
(PID.TID 0000.0001) %MON dynstat_vvel_min             =  -1.4861279365907E-01
(PID.TID 0000.0001) %MON dynstat_vvel_mean            =   2.3492859628262E-03
(PID.TID 0000.0001) %MON dynstat_vvel_sd              =   1.5845233077818E-02
(PID.TID 0000.0001) %MON dynstat_vvel_del2            =   5.2089700449434E-03
(PID.TID 0000.0001) %MON dynstat_wvel_max             =   3.7317470068575E-04
(PID.TID 0000.0001) %MON dynstat_wvel_min             =  -4.9079444699642E-04
(PID.TID 0000.0001) %MON dynstat_wvel_mean            =   7.7163604147286E-22
(PID.TID 0000.0001) %MON dynstat_wvel_sd              =   3.7785392645007E-05
(PID.TID 0000.0001) %MON dynstat_wvel_del2            =   1.5156511077310E-05
(PID.TID 0000.0001) %MON dynstat_theta_max            =   2.9458020708739E+01
(PID.TID 0000.0001) %MON dynstat_theta_min            =  -1.9289742285294E+00
(PID.TID 0000.0001) %MON dynstat_theta_mean           =   3.5933512741958E+00
(PID.TID 0000.0001) %MON dynstat_theta_sd             =   4.3446936156990E+00
(PID.TID 0000.0001) %MON dynstat_theta_del2           =   1.3504330153583E-01
(PID.TID 0000.0001) %MON dynstat_salt_max             =   3.7421141649594E+01
(PID.TID 0000.0001) %MON dynstat_salt_min             =   2.9800047031404E+01
(PID.TID 0000.0001) %MON dynstat_salt_mean            =   3.4716159223127E+01
(PID.TID 0000.0001) %MON dynstat_salt_sd              =   2.9513361129330E-01
(PID.TID 0000.0001) %MON dynstat_salt_del2            =   2.5243136453101E-02
(PID.TID 0000.0001) %MON advcfl_uvel_max              =   3.0352356217226E-02
(PID.TID 0000.0001) %MON advcfl_vvel_max              =   1.4436541172651E-02
(PID.TID 0000.0001) %MON advcfl_wvel_max              =   1.5423964548562E-01
(PID.TID 0000.0001) %MON advcfl_W_hf_max              =   1.4371102272972E-01
(PID.TID 0000.0001) %MON pe_b_mean                    =   1.9606762611607E-04
(PID.TID 0000.0001) %MON ke_max                       =   2.0740359784481E-02
(PID.TID 0000.0001) %MON ke_mean                      =   3.4403836604395E-04
(PID.TID 0000.0001) %MON ke_vol                       =   1.3226782436723E+18
(PID.TID 0000.0001) %MON vort_r_min                   =  -6.9516817015281E-07
(PID.TID 0000.0001) %MON vort_r_max                   =   6.2511341284631E-07
(PID.TID 0000.0001) %MON vort_a_mean                  =  -2.5205769106625E-05
(PID.TID 0000.0001) %MON vort_a_sd                    =   7.3401512819466E-05
(PID.TID 0000.0001) %MON vort_p_mean                  =  -3.1758669196090E-05
(PID.TID 0000.0001) %MON vort_p_sd                    =   1.3125965271600E-04
(PID.TID 0000.0001) %MON surfExpan_theta_mean         =   2.4721182071240E-05
(PID.TID 0000.0001) %MON surfExpan_salt_mean          =  -8.6046301858276E-07
(PID.TID 0000.0001) // =======================================================
(PID.TID 0000.0001) // End MONITOR dynamic field statistics
(PID.TID 0000.0001) // =======================================================
time,SST,SSS,fu,fv,Q,E-P,i0,i1,a,b =   9.5040E+05  7.1702E-01  3.4621E+01 -3.6931E-02 -5.8989E-02  2.6559E+02  0.0000E+00    12     1  8.6667E-01  1.3333E-01
time,fu0,fu1,fu =   9.5040E+05 -4.5368E-02 -3.5633E-02 -3.6931E-02  8.6667E-01  1.3333E-01
 cg2d: Sum(rhs),rhsMax =  -2.40691147568306E-13  1.26581340407882E+01
(PID.TID 0000.0001)                    cg2d_init_res =    5.90613203032599E-01
(PID.TID 0000.0001)                       cg2d_iters =    25
(PID.TID 0000.0001)                         cg2d_res =    3.12549712502685E-14
(PID.TID 0000.0001) // =======================================================
(PID.TID 0000.0001) // Begin MONITOR dynamic field statistics
(PID.TID 0000.0001) // =======================================================
(PID.TID 0000.0001) %MON time_tsnumber                =                    23
(PID.TID 0000.0001) %MON time_secondsf                =   9.9360000000000E+05
(PID.TID 0000.0001) %MON dynstat_eta_max              =   1.4990152776626E+00
(PID.TID 0000.0001) %MON dynstat_eta_min              =  -1.1212182152045E+00
(PID.TID 0000.0001) %MON dynstat_eta_mean             =  -5.8036332764854E-17
(PID.TID 0000.0001) %MON dynstat_eta_sd               =   3.9094963890330E-01
(PID.TID 0000.0001) %MON dynstat_eta_del2             =   1.8869918710304E-02
(PID.TID 0000.0001) %MON dynstat_uvel_max             =   2.0637728174278E-01
(PID.TID 0000.0001) %MON dynstat_uvel_min             =  -1.9118188969741E-01
(PID.TID 0000.0001) %MON dynstat_uvel_mean            =  -8.4291263746107E-03
(PID.TID 0000.0001) %MON dynstat_uvel_sd              =   2.0873480983639E-02
(PID.TID 0000.0001) %MON dynstat_uvel_del2            =   5.1778087703091E-03
(PID.TID 0000.0001) %MON dynstat_vvel_max             =   1.4153738572927E-01
(PID.TID 0000.0001) %MON dynstat_vvel_min             =  -1.5038273323691E-01
(PID.TID 0000.0001) %MON dynstat_vvel_mean            =   2.3069936204171E-03
(PID.TID 0000.0001) %MON dynstat_vvel_sd              =   1.5919506008873E-02
(PID.TID 0000.0001) %MON dynstat_vvel_del2            =   5.2514909089190E-03
(PID.TID 0000.0001) %MON dynstat_wvel_max             =   3.8153212130427E-04
(PID.TID 0000.0001) %MON dynstat_wvel_min             =  -4.7891208189781E-04
(PID.TID 0000.0001) %MON dynstat_wvel_mean            =  -6.5853910338699E-23
(PID.TID 0000.0001) %MON dynstat_wvel_sd              =   3.6974333764051E-05
(PID.TID 0000.0001) %MON dynstat_wvel_del2            =   1.4843029508051E-05
(PID.TID 0000.0001) %MON dynstat_theta_max            =   2.9460230035885E+01
(PID.TID 0000.0001) %MON dynstat_theta_min            =  -1.9295861315868E+00
(PID.TID 0000.0001) %MON dynstat_theta_mean           =   3.5932632149159E+00
(PID.TID 0000.0001) %MON dynstat_theta_sd             =   4.3436396776060E+00
(PID.TID 0000.0001) %MON dynstat_theta_del2           =   1.3491602884369E-01
(PID.TID 0000.0001) %MON dynstat_salt_max             =   3.7420124825868E+01
(PID.TID 0000.0001) %MON dynstat_salt_min             =   2.9800078859256E+01
(PID.TID 0000.0001) %MON dynstat_salt_mean            =   3.4716180095289E+01
(PID.TID 0000.0001) %MON dynstat_salt_sd              =   2.9508745907592E-01
(PID.TID 0000.0001) %MON dynstat_salt_del2            =   2.5231982239067E-02
(PID.TID 0000.0001) %MON advcfl_uvel_max              =   3.0999693178820E-02
(PID.TID 0000.0001) %MON advcfl_vvel_max              =   1.4608476609429E-02
(PID.TID 0000.0001) %MON advcfl_wvel_max              =   1.6401152058705E-01
(PID.TID 0000.0001) %MON advcfl_W_hf_max              =   1.5007860075793E-01
(PID.TID 0000.0001) %MON pe_b_mean                    =   1.9557927542609E-04
(PID.TID 0000.0001) %MON ke_max                       =   2.1399888069512E-02
(PID.TID 0000.0001) %MON ke_mean                      =   3.4639079102257E-04
(PID.TID 0000.0001) %MON ke_vol                       =   1.3226782436723E+18
(PID.TID 0000.0001) %MON vort_r_min                   =  -7.0752766788967E-07
(PID.TID 0000.0001) %MON vort_r_max                   =   6.4154204361573E-07
(PID.TID 0000.0001) %MON vort_a_mean                  =  -2.5205769067268E-05
(PID.TID 0000.0001) %MON vort_a_sd                    =   7.3401596100221E-05
(PID.TID 0000.0001) %MON vort_p_mean                  =  -3.1758669146502E-05
(PID.TID 0000.0001) %MON vort_p_sd                    =   1.3125988123993E-04
(PID.TID 0000.0001) %MON surfExpan_theta_mean         =   1.6457029277436E-05
(PID.TID 0000.0001) %MON surfExpan_salt_mean          =  -1.4890555165703E-06
(PID.TID 0000.0001) // =======================================================
(PID.TID 0000.0001) // End MONITOR dynamic field statistics
(PID.TID 0000.0001) // =======================================================
time,SST,SSS,fu,fv,Q,E-P,i0,i1,a,b =   9.9360E+05  7.4719E-01  3.4633E+01 -3.6769E-02 -5.8772E-02  2.6561E+02  0.0000E+00    12     1  8.8333E-01  1.1667E-01
time,fu0,fu1,fu =   9.9360E+05 -4.5368E-02 -3.5633E-02 -3.6769E-02  8.8333E-01  1.1667E-01
 cg2d: Sum(rhs),rhsMax =  -3.92602617083071E-14  1.32897167539278E+01
(PID.TID 0000.0001)                    cg2d_init_res =    5.51067978715585E-01
(PID.TID 0000.0001)                       cg2d_iters =    25
(PID.TID 0000.0001)                         cg2d_res =    3.06771707648445E-14
(PID.TID 0000.0001) // =======================================================
(PID.TID 0000.0001) // Begin MONITOR dynamic field statistics
(PID.TID 0000.0001) // =======================================================
(PID.TID 0000.0001) %MON time_tsnumber                =                    24
(PID.TID 0000.0001) %MON time_secondsf                =   1.0368000000000E+06
(PID.TID 0000.0001) %MON dynstat_eta_max              =   1.5708985675434E+00
(PID.TID 0000.0001) %MON dynstat_eta_min              =  -1.1420600705514E+00
(PID.TID 0000.0001) %MON dynstat_eta_mean             =  -9.2377665611729E-18
(PID.TID 0000.0001) %MON dynstat_eta_sd               =   3.8986954994207E-01
(PID.TID 0000.0001) %MON dynstat_eta_del2             =   1.8730867283476E-02
(PID.TID 0000.0001) %MON dynstat_uvel_max             =   2.0822867342164E-01
(PID.TID 0000.0001) %MON dynstat_uvel_min             =  -2.0212690731157E-01
(PID.TID 0000.0001) %MON dynstat_uvel_mean            =  -7.9415545610635E-03
(PID.TID 0000.0001) %MON dynstat_uvel_sd              =   2.1067944392767E-02
(PID.TID 0000.0001) %MON dynstat_uvel_del2            =   5.2395427915104E-03
(PID.TID 0000.0001) %MON dynstat_vvel_max             =   1.4447396810769E-01
(PID.TID 0000.0001) %MON dynstat_vvel_min             =  -1.5048455551602E-01
(PID.TID 0000.0001) %MON dynstat_vvel_mean            =   2.3182390908255E-03
(PID.TID 0000.0001) %MON dynstat_vvel_sd              =   1.5995239818199E-02
(PID.TID 0000.0001) %MON dynstat_vvel_del2            =   5.2845743725326E-03
(PID.TID 0000.0001) %MON dynstat_wvel_max             =   3.9328218162831E-04
(PID.TID 0000.0001) %MON dynstat_wvel_min             =  -4.6349295285205E-04
(PID.TID 0000.0001) %MON dynstat_wvel_mean            =   8.5525420099639E-22
(PID.TID 0000.0001) %MON dynstat_wvel_sd              =   3.6165376661161E-05
(PID.TID 0000.0001) %MON dynstat_wvel_del2            =   1.4520926176367E-05
(PID.TID 0000.0001) %MON dynstat_theta_max            =   2.9462359185824E+01
(PID.TID 0000.0001) %MON dynstat_theta_min            =  -1.9307203979611E+00
(PID.TID 0000.0001) %MON dynstat_theta_mean           =   3.5932453229715E+00
(PID.TID 0000.0001) %MON dynstat_theta_sd             =   4.3428970841610E+00
(PID.TID 0000.0001) %MON dynstat_theta_del2           =   1.3481076514757E-01
(PID.TID 0000.0001) %MON dynstat_salt_max             =   3.7419116058254E+01
(PID.TID 0000.0001) %MON dynstat_salt_min             =   2.9800132740454E+01
(PID.TID 0000.0001) %MON dynstat_salt_mean            =   3.4716205534700E+01
(PID.TID 0000.0001) %MON dynstat_salt_sd              =   2.9504176545471E-01
(PID.TID 0000.0001) %MON dynstat_salt_del2            =   2.5222384961129E-02
(PID.TID 0000.0001) %MON advcfl_uvel_max              =   3.1482617580264E-02
(PID.TID 0000.0001) %MON advcfl_vvel_max              =   1.4618367827328E-02
(PID.TID 0000.0001) %MON advcfl_wvel_max              =   1.7731655878126E-01
(PID.TID 0000.0001) %MON advcfl_W_hf_max              =   1.5433995119759E-01
(PID.TID 0000.0001) %MON pe_b_mean                    =   1.9450010209249E-04
(PID.TID 0000.0001) %MON ke_max                       =   2.1959509414466E-02
(PID.TID 0000.0001) %MON ke_mean                      =   3.4757838765395E-04
(PID.TID 0000.0001) %MON ke_vol                       =   1.3226782436723E+18
(PID.TID 0000.0001) %MON vort_r_min                   =  -7.2335581401245E-07
(PID.TID 0000.0001) %MON vort_r_max                   =   6.5322093633858E-07
(PID.TID 0000.0001) %MON vort_a_mean                  =  -2.5205769041693E-05
(PID.TID 0000.0001) %MON vort_a_sd                    =   7.3401686882683E-05
(PID.TID 0000.0001) %MON vort_p_mean                  =  -3.1758669114278E-05
(PID.TID 0000.0001) %MON vort_p_sd                    =   1.3126012209886E-04
(PID.TID 0000.0001) %MON surfExpan_theta_mean         =   9.4953937639869E-06
(PID.TID 0000.0001) %MON surfExpan_salt_mean          =  -1.9813448139281E-06
(PID.TID 0000.0001) // =======================================================
(PID.TID 0000.0001) // End MONITOR dynamic field statistics
(PID.TID 0000.0001) // =======================================================
time,SST,SSS,fu,fv,Q,E-P,i0,i1,a,b =   1.0368E+06  7.7737E-01  3.4644E+01 -3.6606E-02 -5.8556E-02  2.6564E+02  0.0000E+00    12     1  9.0000E-01  1.0000E-01
time,fu0,fu1,fu =   1.0368E+06 -4.5368E-02 -3.5633E-02 -3.6606E-02  9.0000E-01  1.0000E-01
 cg2d: Sum(rhs),rhsMax =  -1.16549131456978E-13  1.37323322818644E+01
(PID.TID 0000.0001)                    cg2d_init_res =    5.23673483384493E-01
(PID.TID 0000.0001)                       cg2d_iters =    25
(PID.TID 0000.0001)                         cg2d_res =    2.95860315556393E-14
(PID.TID 0000.0001) // =======================================================
(PID.TID 0000.0001) // Begin MONITOR dynamic field statistics
(PID.TID 0000.0001) // =======================================================
(PID.TID 0000.0001) %MON time_tsnumber                =                    25
(PID.TID 0000.0001) %MON time_secondsf                =   1.0800000000000E+06
(PID.TID 0000.0001) %MON dynstat_eta_max              =   1.6206954058699E+00
(PID.TID 0000.0001) %MON dynstat_eta_min              =  -1.1413636863035E+00
(PID.TID 0000.0001) %MON dynstat_eta_mean             =  -1.0033568911051E-16
(PID.TID 0000.0001) %MON dynstat_eta_sd               =   3.8838353564650E-01
(PID.TID 0000.0001) %MON dynstat_eta_del2             =   1.8609386915951E-02
(PID.TID 0000.0001) %MON dynstat_uvel_max             =   2.0883203499398E-01
(PID.TID 0000.0001) %MON dynstat_uvel_min             =  -2.0967224332372E-01
(PID.TID 0000.0001) %MON dynstat_uvel_mean            =  -7.4385671734173E-03
(PID.TID 0000.0001) %MON dynstat_uvel_sd              =   2.1193451806834E-02
(PID.TID 0000.0001) %MON dynstat_uvel_del2            =   5.2964270494991E-03
(PID.TID 0000.0001) %MON dynstat_vvel_max             =   1.4775321101022E-01
(PID.TID 0000.0001) %MON dynstat_vvel_min             =  -1.4919193421177E-01
(PID.TID 0000.0001) %MON dynstat_vvel_mean            =   2.3775906580884E-03
(PID.TID 0000.0001) %MON dynstat_vvel_sd              =   1.6072456421806E-02
(PID.TID 0000.0001) %MON dynstat_vvel_del2            =   5.3061395451445E-03
(PID.TID 0000.0001) %MON dynstat_wvel_max             =   4.0210225960324E-04
(PID.TID 0000.0001) %MON dynstat_wvel_min             =  -4.4488448822692E-04
(PID.TID 0000.0001) %MON dynstat_wvel_mean            =   8.7881026960198E-22
(PID.TID 0000.0001) %MON dynstat_wvel_sd              =   3.5384657467372E-05
(PID.TID 0000.0001) %MON dynstat_wvel_del2            =   1.4199683716049E-05
(PID.TID 0000.0001) %MON dynstat_theta_max            =   2.9464237239257E+01
(PID.TID 0000.0001) %MON dynstat_theta_min            =  -1.9322978423079E+00
(PID.TID 0000.0001) %MON dynstat_theta_mean           =   3.5932824144125E+00
(PID.TID 0000.0001) %MON dynstat_theta_sd             =   4.3424412519685E+00
(PID.TID 0000.0001) %MON dynstat_theta_del2           =   1.3471583749475E-01
(PID.TID 0000.0001) %MON dynstat_salt_max             =   3.7418113630226E+01
(PID.TID 0000.0001) %MON dynstat_salt_min             =   2.9800230596692E+01
(PID.TID 0000.0001) %MON dynstat_salt_mean            =   3.4716233899146E+01
(PID.TID 0000.0001) %MON dynstat_salt_sd              =   2.9499567906355E-01
(PID.TID 0000.0001) %MON dynstat_salt_del2            =   2.5209762356024E-02
(PID.TID 0000.0001) %MON advcfl_uvel_max              =   3.1802367111024E-02
(PID.TID 0000.0001) %MON advcfl_vvel_max              =   1.4492800033196E-02
(PID.TID 0000.0001) %MON advcfl_wvel_max              =   1.8416251661581E-01
(PID.TID 0000.0001) %MON advcfl_W_hf_max              =   1.4682937909346E-01
(PID.TID 0000.0001) %MON pe_b_mean                    =   1.9302022707468E-04
(PID.TID 0000.0001) %MON ke_max                       =   2.2417568823597E-02
(PID.TID 0000.0001) %MON ke_mean                      =   3.4771032279875E-04
(PID.TID 0000.0001) %MON ke_vol                       =   1.3226782436723E+18
(PID.TID 0000.0001) %MON vort_r_min                   =  -7.3511385880127E-07
(PID.TID 0000.0001) %MON vort_r_max                   =   6.5969946304842E-07
(PID.TID 0000.0001) %MON vort_a_mean                  =  -2.5205769029989E-05
(PID.TID 0000.0001) %MON vort_a_sd                    =   7.3401782654360E-05
(PID.TID 0000.0001) %MON vort_p_mean                  =  -3.1758669099530E-05
(PID.TID 0000.0001) %MON vort_p_sd                    =   1.3126036666112E-04
(PID.TID 0000.0001) %MON surfExpan_theta_mean         =   3.8662702742496E-06
(PID.TID 0000.0001) %MON surfExpan_salt_mean          =  -2.3304502579835E-06
(PID.TID 0000.0001) // =======================================================
(PID.TID 0000.0001) // End MONITOR dynamic field statistics
(PID.TID 0000.0001) // =======================================================
time,SST,SSS,fu,fv,Q,E-P,i0,i1,a,b =   1.0800E+06  8.0755E-01  3.4656E+01 -3.6444E-02 -5.8339E-02  2.6566E+02  0.0000E+00    12     1  9.1667E-01  8.3333E-02
time,fu0,fu1,fu =   1.0800E+06 -4.5368E-02 -3.5633E-02 -3.6444E-02  9.1667E-01  8.3333E-02
 cg2d: Sum(rhs),rhsMax =   2.04225525379798E-13  1.39675819284261E+01
(PID.TID 0000.0001)                    cg2d_init_res =    5.08227480419724E-01
(PID.TID 0000.0001)                       cg2d_iters =    25
(PID.TID 0000.0001)                         cg2d_res =    2.81795023193563E-14
(PID.TID 0000.0001) // =======================================================
(PID.TID 0000.0001) // Begin MONITOR dynamic field statistics
(PID.TID 0000.0001) // =======================================================
(PID.TID 0000.0001) %MON time_tsnumber                =                    26
(PID.TID 0000.0001) %MON time_secondsf                =   1.1232000000000E+06
(PID.TID 0000.0001) %MON dynstat_eta_max              =   1.6463284432019E+00
(PID.TID 0000.0001) %MON dynstat_eta_min              =  -1.1206677444215E+00
(PID.TID 0000.0001) %MON dynstat_eta_mean             =  -6.2524109165732E-17
(PID.TID 0000.0001) %MON dynstat_eta_sd               =   3.8666661540007E-01
(PID.TID 0000.0001) %MON dynstat_eta_del2             =   1.8470178835739E-02
(PID.TID 0000.0001) %MON dynstat_uvel_max             =   2.0815515504620E-01
(PID.TID 0000.0001) %MON dynstat_uvel_min             =  -2.1349129929398E-01
(PID.TID 0000.0001) %MON dynstat_uvel_mean            =  -6.9328158077094E-03
(PID.TID 0000.0001) %MON dynstat_uvel_sd              =   2.1251344922996E-02
(PID.TID 0000.0001) %MON dynstat_uvel_del2            =   5.3509105818241E-03
(PID.TID 0000.0001) %MON dynstat_vvel_max             =   1.5049912710492E-01
(PID.TID 0000.0001) %MON dynstat_vvel_min             =  -1.4552409755048E-01
(PID.TID 0000.0001) %MON dynstat_vvel_mean            =   2.4778900174584E-03
(PID.TID 0000.0001) %MON dynstat_vvel_sd              =   1.6151929820794E-02
(PID.TID 0000.0001) %MON dynstat_vvel_del2            =   5.3184974983761E-03
(PID.TID 0000.0001) %MON dynstat_wvel_max             =   4.0802413171967E-04
(PID.TID 0000.0001) %MON dynstat_wvel_min             =  -4.2357650168866E-04
(PID.TID 0000.0001) %MON dynstat_wvel_mean            =   5.0361645123040E-22
(PID.TID 0000.0001) %MON dynstat_wvel_sd              =   3.4658048790286E-05
(PID.TID 0000.0001) %MON dynstat_wvel_del2            =   1.3887631389443E-05
(PID.TID 0000.0001) %MON dynstat_theta_max            =   2.9465724823522E+01
(PID.TID 0000.0001) %MON dynstat_theta_min            =  -1.9341599452490E+00
(PID.TID 0000.0001) %MON dynstat_theta_mean           =   3.5933597434840E+00
(PID.TID 0000.0001) %MON dynstat_theta_sd             =   4.3422427288073E+00
(PID.TID 0000.0001) %MON dynstat_theta_del2           =   1.3463296649179E-01
(PID.TID 0000.0001) %MON dynstat_salt_max             =   3.7417117798704E+01
(PID.TID 0000.0001) %MON dynstat_salt_min             =   2.9800388647919E+01
(PID.TID 0000.0001) %MON dynstat_salt_mean            =   3.4716263528081E+01
(PID.TID 0000.0001) %MON dynstat_salt_sd              =   2.9494817723478E-01
(PID.TID 0000.0001) %MON dynstat_salt_del2            =   2.5195484239963E-02
(PID.TID 0000.0001) %MON advcfl_uvel_max              =   3.1978595970681E-02
(PID.TID 0000.0001) %MON advcfl_vvel_max              =   1.4619783340339E-02
(PID.TID 0000.0001) %MON advcfl_wvel_max              =   1.8404548307572E-01
(PID.TID 0000.0001) %MON advcfl_W_hf_max              =   1.3949090372794E-01
(PID.TID 0000.0001) %MON pe_b_mean                    =   1.9131743693208E-04
(PID.TID 0000.0001) %MON ke_max                       =   2.2769618989255E-02
(PID.TID 0000.0001) %MON ke_mean                      =   3.4689294732188E-04
(PID.TID 0000.0001) %MON ke_vol                       =   1.3226782436723E+18
(PID.TID 0000.0001) %MON vort_r_min                   =  -7.4277715760954E-07
(PID.TID 0000.0001) %MON vort_r_max                   =   6.6110126647579E-07
(PID.TID 0000.0001) %MON vort_a_mean                  =  -2.5205769031339E-05
(PID.TID 0000.0001) %MON vort_a_sd                    =   7.3401881074791E-05
(PID.TID 0000.0001) %MON vort_p_mean                  =  -3.1758669101232E-05
(PID.TID 0000.0001) %MON vort_p_sd                    =   1.3126060843116E-04
(PID.TID 0000.0001) %MON surfExpan_theta_mean         =  -4.5314746432798E-07
(PID.TID 0000.0001) %MON surfExpan_salt_mean          =  -2.5343640624502E-06
(PID.TID 0000.0001) // =======================================================
(PID.TID 0000.0001) // End MONITOR dynamic field statistics
(PID.TID 0000.0001) // =======================================================
time,SST,SSS,fu,fv,Q,E-P,i0,i1,a,b =   1.1232E+06  8.3772E-01  3.4668E+01 -3.6282E-02 -5.8123E-02  2.6568E+02  0.0000E+00    12     1  9.3333E-01  6.6667E-02
time,fu0,fu1,fu =   1.1232E+06 -4.5368E-02 -3.5633E-02 -3.6282E-02  9.3333E-01  6.6667E-02
 cg2d: Sum(rhs),rhsMax =   2.49564258147927E-13  1.39838979558992E+01
(PID.TID 0000.0001)                    cg2d_init_res =    5.04783557263138E-01
(PID.TID 0000.0001)                       cg2d_iters =    25
(PID.TID 0000.0001)                         cg2d_res =    2.64033693621397E-14
(PID.TID 0000.0001) // =======================================================
(PID.TID 0000.0001) // Begin MONITOR dynamic field statistics
(PID.TID 0000.0001) // =======================================================
(PID.TID 0000.0001) %MON time_tsnumber                =                    27
(PID.TID 0000.0001) %MON time_secondsf                =   1.1664000000000E+06
(PID.TID 0000.0001) %MON dynstat_eta_max              =   1.6465067281878E+00
(PID.TID 0000.0001) %MON dynstat_eta_min              =  -1.0883651043628E+00
(PID.TID 0000.0001) %MON dynstat_eta_mean             =   4.5516219965693E-17
(PID.TID 0000.0001) %MON dynstat_eta_sd               =   3.8488866744894E-01
(PID.TID 0000.0001) %MON dynstat_eta_del2             =   1.8405047686344E-02
(PID.TID 0000.0001) %MON dynstat_uvel_max             =   2.0617640605333E-01
(PID.TID 0000.0001) %MON dynstat_uvel_min             =  -2.1339074537562E-01
(PID.TID 0000.0001) %MON dynstat_uvel_mean            =  -6.4354736643233E-03
(PID.TID 0000.0001) %MON dynstat_uvel_sd              =   2.1243524492311E-02
(PID.TID 0000.0001) %MON dynstat_uvel_del2            =   5.4055613142199E-03
(PID.TID 0000.0001) %MON dynstat_vvel_max             =   1.5274790929642E-01
(PID.TID 0000.0001) %MON dynstat_vvel_min             =  -1.5198853464320E-01
(PID.TID 0000.0001) %MON dynstat_vvel_mean            =   2.6107466790571E-03
(PID.TID 0000.0001) %MON dynstat_vvel_sd              =   1.6233873326984E-02
(PID.TID 0000.0001) %MON dynstat_vvel_del2            =   5.3256383909694E-03
(PID.TID 0000.0001) %MON dynstat_wvel_max             =   4.1112432742050E-04
(PID.TID 0000.0001) %MON dynstat_wvel_min             =  -4.0014499351768E-04
(PID.TID 0000.0001) %MON dynstat_wvel_mean            =   1.9012201464261E-22
(PID.TID 0000.0001) %MON dynstat_wvel_sd              =   3.4007573330559E-05
(PID.TID 0000.0001) %MON dynstat_wvel_del2            =   1.3591120336324E-05
(PID.TID 0000.0001) %MON dynstat_theta_max            =   2.9466748055111E+01
(PID.TID 0000.0001) %MON dynstat_theta_min            =  -1.9361456390788E+00
(PID.TID 0000.0001) %MON dynstat_theta_mean           =   3.5934636138320E+00
(PID.TID 0000.0001) %MON dynstat_theta_sd             =   4.3422685867294E+00
(PID.TID 0000.0001) %MON dynstat_theta_del2           =   1.3458370273316E-01
(PID.TID 0000.0001) %MON dynstat_salt_max             =   3.7416127650906E+01
(PID.TID 0000.0001) %MON dynstat_salt_min             =   2.9800617235652E+01
(PID.TID 0000.0001) %MON dynstat_salt_mean            =   3.4716292831783E+01
(PID.TID 0000.0001) %MON dynstat_salt_sd              =   2.9489921059177E-01
(PID.TID 0000.0001) %MON dynstat_salt_del2            =   2.5181935929588E-02
(PID.TID 0000.0001) %MON advcfl_uvel_max              =   3.2537600594767E-02
(PID.TID 0000.0001) %MON advcfl_vvel_max              =   1.4838234497179E-02
(PID.TID 0000.0001) %MON advcfl_wvel_max              =   1.7681960892936E-01
(PID.TID 0000.0001) %MON advcfl_W_hf_max              =   1.3360306572066E-01
(PID.TID 0000.0001) %MON pe_b_mean                    =   1.8956207250756E-04
(PID.TID 0000.0001) %MON ke_max                       =   2.3008258028297E-02
(PID.TID 0000.0001) %MON ke_mean                      =   3.4521632240850E-04
(PID.TID 0000.0001) %MON ke_vol                       =   1.3226782436723E+18
(PID.TID 0000.0001) %MON vort_r_min                   =  -7.4637697837774E-07
(PID.TID 0000.0001) %MON vort_r_max                   =   6.5774106451670E-07
(PID.TID 0000.0001) %MON vort_a_mean                  =  -2.5205769044021E-05
(PID.TID 0000.0001) %MON vort_a_sd                    =   7.3401980011588E-05
(PID.TID 0000.0001) %MON vort_p_mean                  =  -3.1758669117211E-05
(PID.TID 0000.0001) %MON vort_p_sd                    =   1.3126084284674E-04
(PID.TID 0000.0001) %MON surfExpan_theta_mean         =  -3.5235757375971E-06
(PID.TID 0000.0001) %MON surfExpan_salt_mean          =  -2.5948623778960E-06
(PID.TID 0000.0001) // =======================================================
(PID.TID 0000.0001) // End MONITOR dynamic field statistics
(PID.TID 0000.0001) // =======================================================
time,SST,SSS,fu,fv,Q,E-P,i0,i1,a,b =   1.1664E+06  8.6790E-01  3.4679E+01 -3.6120E-02 -5.7906E-02  2.6570E+02  0.0000E+00    12     1  9.5000E-01  5.0000E-02
time,fu0,fu1,fu =   1.1664E+06 -4.5368E-02 -3.5633E-02 -3.6120E-02  9.5000E-01  5.0000E-02
 cg2d: Sum(rhs),rhsMax =   4.38191150031741E-15  1.37769726897255E+01
(PID.TID 0000.0001)                    cg2d_init_res =    5.13230022861627E-01
(PID.TID 0000.0001)                       cg2d_iters =    25
(PID.TID 0000.0001)                         cg2d_res =    2.48009340581708E-14
(PID.TID 0000.0001) // =======================================================
(PID.TID 0000.0001) // Begin MONITOR dynamic field statistics
(PID.TID 0000.0001) // =======================================================
(PID.TID 0000.0001) %MON time_tsnumber                =                    28
(PID.TID 0000.0001) %MON time_secondsf                =   1.2096000000000E+06
(PID.TID 0000.0001) %MON dynstat_eta_max              =   1.6207762372825E+00
(PID.TID 0000.0001) %MON dynstat_eta_min              =  -1.0716304473600E+00
(PID.TID 0000.0001) %MON dynstat_eta_mean             =  -1.3211387036754E-16
(PID.TID 0000.0001) %MON dynstat_eta_sd               =   3.8321747575845E-01
(PID.TID 0000.0001) %MON dynstat_eta_del2             =   1.8434651243079E-02
(PID.TID 0000.0001) %MON dynstat_uvel_max             =   2.0288551146087E-01
(PID.TID 0000.0001) %MON dynstat_uvel_min             =  -2.0932104397158E-01
(PID.TID 0000.0001) %MON dynstat_uvel_mean            =  -5.9561185267207E-03
(PID.TID 0000.0001) %MON dynstat_uvel_sd              =   2.1172760095641E-02
(PID.TID 0000.0001) %MON dynstat_uvel_del2            =   5.4576896866244E-03
(PID.TID 0000.0001) %MON dynstat_vvel_max             =   1.5452798914450E-01
(PID.TID 0000.0001) %MON dynstat_vvel_min             =  -1.5624929103602E-01
(PID.TID 0000.0001) %MON dynstat_vvel_mean            =   2.7670126629444E-03
(PID.TID 0000.0001) %MON dynstat_vvel_sd              =   1.6316972865201E-02
(PID.TID 0000.0001) %MON dynstat_vvel_del2            =   5.3297264189492E-03
(PID.TID 0000.0001) %MON dynstat_wvel_max             =   4.1150469299195E-04
(PID.TID 0000.0001) %MON dynstat_wvel_min             =  -3.8130181344674E-04
(PID.TID 0000.0001) %MON dynstat_wvel_mean            =  -1.3894042156510E-22
(PID.TID 0000.0001) %MON dynstat_wvel_sd              =   3.3447600878543E-05
(PID.TID 0000.0001) %MON dynstat_wvel_del2            =   1.3318697112264E-05
(PID.TID 0000.0001) %MON dynstat_theta_max            =   2.9467326685714E+01
(PID.TID 0000.0001) %MON dynstat_theta_min            =  -1.9381039398759E+00
(PID.TID 0000.0001) %MON dynstat_theta_mean           =   3.5935817264017E+00
(PID.TID 0000.0001) %MON dynstat_theta_sd             =   4.3424824767986E+00
(PID.TID 0000.0001) %MON dynstat_theta_del2           =   1.3453386508327E-01
(PID.TID 0000.0001) %MON dynstat_salt_max             =   3.7415140317190E+01
(PID.TID 0000.0001) %MON dynstat_salt_min             =   2.9800920878196E+01
(PID.TID 0000.0001) %MON dynstat_salt_mean            =   3.4716320334197E+01
(PID.TID 0000.0001) %MON dynstat_salt_sd              =   2.9484822217660E-01
(PID.TID 0000.0001) %MON dynstat_salt_del2            =   2.5166222351774E-02
(PID.TID 0000.0001) %MON advcfl_uvel_max              =   3.2975306781995E-02
(PID.TID 0000.0001) %MON advcfl_vvel_max              =   1.5178365655475E-02
(PID.TID 0000.0001) %MON advcfl_wvel_max              =   1.6269550989513E-01
(PID.TID 0000.0001) %MON advcfl_W_hf_max              =   1.2241615977974E-01
(PID.TID 0000.0001) %MON pe_b_mean                    =   1.8791948427854E-04
(PID.TID 0000.0001) %MON ke_max                       =   2.3247891787398E-02
(PID.TID 0000.0001) %MON ke_mean                      =   3.4274569732606E-04
(PID.TID 0000.0001) %MON ke_vol                       =   1.3226782436723E+18
(PID.TID 0000.0001) %MON vort_r_min                   =  -7.4599696995569E-07
(PID.TID 0000.0001) %MON vort_r_max                   =   6.5008181218352E-07
(PID.TID 0000.0001) %MON vort_a_mean                  =  -2.5205769065622E-05
(PID.TID 0000.0001) %MON vort_a_sd                    =   7.3402077564016E-05
(PID.TID 0000.0001) %MON vort_p_mean                  =  -3.1758669144428E-05
(PID.TID 0000.0001) %MON vort_p_sd                    =   1.3126106695491E-04
(PID.TID 0000.0001) %MON surfExpan_theta_mean         =  -5.4498067455427E-06
(PID.TID 0000.0001) %MON surfExpan_salt_mean          =  -2.5197573197197E-06
(PID.TID 0000.0001) // =======================================================
(PID.TID 0000.0001) // End MONITOR dynamic field statistics
(PID.TID 0000.0001) // =======================================================
time,SST,SSS,fu,fv,Q,E-P,i0,i1,a,b =   1.2096E+06  8.9807E-01  3.4691E+01 -3.5957E-02 -5.7690E-02  2.6573E+02  0.0000E+00    12     1  9.6667E-01  3.3333E-02
time,fu0,fu1,fu =   1.2096E+06 -4.5368E-02 -3.5633E-02 -3.5957E-02  9.6667E-01  3.3333E-02
 cg2d: Sum(rhs),rhsMax =  -1.39079719962965E-13  1.33499348747713E+01
(PID.TID 0000.0001)                    cg2d_init_res =    5.33178294495149E-01
(PID.TID 0000.0001)                       cg2d_iters =    25
(PID.TID 0000.0001)                         cg2d_res =    2.27730018141229E-14
(PID.TID 0000.0001) // =======================================================
(PID.TID 0000.0001) // Begin MONITOR dynamic field statistics
(PID.TID 0000.0001) // =======================================================
(PID.TID 0000.0001) %MON time_tsnumber                =                    29
(PID.TID 0000.0001) %MON time_secondsf                =   1.2528000000000E+06
(PID.TID 0000.0001) %MON dynstat_eta_max              =   1.5695414855814E+00
(PID.TID 0000.0001) %MON dynstat_eta_min              =  -1.0437245884134E+00
(PID.TID 0000.0001) %MON dynstat_eta_mean             =  -1.7823452241387E-16
(PID.TID 0000.0001) %MON dynstat_eta_sd               =   3.8181577126577E-01
(PID.TID 0000.0001) %MON dynstat_eta_del2             =   1.8569563699454E-02
(PID.TID 0000.0001) %MON dynstat_uvel_max             =   2.0085688523828E-01
(PID.TID 0000.0001) %MON dynstat_uvel_min             =  -2.0138156960217E-01
(PID.TID 0000.0001) %MON dynstat_uvel_mean            =  -5.5026689754632E-03
(PID.TID 0000.0001) %MON dynstat_uvel_sd              =   2.1042919788711E-02
(PID.TID 0000.0001) %MON dynstat_uvel_del2            =   5.5071486517655E-03
(PID.TID 0000.0001) %MON dynstat_vvel_max             =   1.5586027399147E-01
(PID.TID 0000.0001) %MON dynstat_vvel_min             =  -1.5680971853402E-01
(PID.TID 0000.0001) %MON dynstat_vvel_mean            =   2.9372202395626E-03
(PID.TID 0000.0001) %MON dynstat_vvel_sd              =   1.6398018008174E-02
(PID.TID 0000.0001) %MON dynstat_vvel_del2            =   5.3286017094160E-03
(PID.TID 0000.0001) %MON dynstat_wvel_max             =   4.0927790834608E-04
(PID.TID 0000.0001) %MON dynstat_wvel_min             =  -3.8286252672172E-04
(PID.TID 0000.0001) %MON dynstat_wvel_mean            =  -8.9768823070912E-22
(PID.TID 0000.0001) %MON dynstat_wvel_sd              =   3.2982512122740E-05
(PID.TID 0000.0001) %MON dynstat_wvel_del2            =   1.3080993924266E-05
(PID.TID 0000.0001) %MON dynstat_theta_max            =   2.9467594226841E+01
(PID.TID 0000.0001) %MON dynstat_theta_min            =  -1.9399036823979E+00
(PID.TID 0000.0001) %MON dynstat_theta_mean           =   3.5937034579462E+00
(PID.TID 0000.0001) %MON dynstat_theta_sd             =   4.3428473570560E+00
(PID.TID 0000.0001) %MON dynstat_theta_del2           =   1.3451284022488E-01
(PID.TID 0000.0001) %MON dynstat_salt_max             =   3.7414149526651E+01
(PID.TID 0000.0001) %MON dynstat_salt_min             =   2.9801298581780E+01
(PID.TID 0000.0001) %MON dynstat_salt_mean            =   3.4716344742088E+01
(PID.TID 0000.0001) %MON dynstat_salt_sd              =   2.9479461348369E-01
(PID.TID 0000.0001) %MON dynstat_salt_del2            =   2.5158646900359E-02
(PID.TID 0000.0001) %MON advcfl_uvel_max              =   3.3297472367960E-02
(PID.TID 0000.0001) %MON advcfl_vvel_max              =   1.5232806692817E-02
(PID.TID 0000.0001) %MON advcfl_wvel_max              =   1.4916691460590E-01
(PID.TID 0000.0001) %MON advcfl_W_hf_max              =   1.0851048938327E-01
(PID.TID 0000.0001) %MON pe_b_mean                    =   1.8654728250993E-04
(PID.TID 0000.0001) %MON ke_max                       =   2.3661899239357E-02
(PID.TID 0000.0001) %MON ke_mean                      =   3.3952105490062E-04
(PID.TID 0000.0001) %MON ke_vol                       =   1.3226782436723E+18
(PID.TID 0000.0001) %MON vort_r_min                   =  -7.4176955395803E-07
(PID.TID 0000.0001) %MON vort_r_max                   =   6.3869070601334E-07
(PID.TID 0000.0001) %MON vort_a_mean                  =  -2.5205769093297E-05
(PID.TID 0000.0001) %MON vort_a_sd                    =   7.3402172078807E-05
(PID.TID 0000.0001) %MON vort_p_mean                  =  -3.1758669179297E-05
(PID.TID 0000.0001) %MON vort_p_sd                    =   1.3126127902901E-04
(PID.TID 0000.0001) %MON surfExpan_theta_mean         =  -6.3618248276768E-06
(PID.TID 0000.0001) %MON surfExpan_salt_mean          =  -2.3219131946206E-06
(PID.TID 0000.0001) // =======================================================
(PID.TID 0000.0001) // End MONITOR dynamic field statistics
(PID.TID 0000.0001) // =======================================================
time,SST,SSS,fu,fv,Q,E-P,i0,i1,a,b =   1.2528E+06  9.2825E-01  3.4703E+01 -3.5795E-02 -5.7473E-02  2.6575E+02  0.0000E+00    12     1  9.8333E-01  1.6667E-02
time,fu0,fu1,fu =   1.2528E+06 -4.5368E-02 -3.5633E-02 -3.5795E-02  9.8333E-01  1.6667E-02
 cg2d: Sum(rhs),rhsMax =   1.02629710285740E-13  1.27132009596597E+01
(PID.TID 0000.0001)                    cg2d_init_res =    5.64190010683842E-01
(PID.TID 0000.0001)                       cg2d_iters =    24
(PID.TID 0000.0001)                         cg2d_res =    9.36738089412215E-14
(PID.TID 0000.0001) // =======================================================
(PID.TID 0000.0001) // Begin MONITOR dynamic field statistics
(PID.TID 0000.0001) // =======================================================
(PID.TID 0000.0001) %MON time_tsnumber                =                    30
(PID.TID 0000.0001) %MON time_secondsf                =   1.2960000000000E+06
(PID.TID 0000.0001) %MON dynstat_eta_max              =   1.4940497976437E+00
(PID.TID 0000.0001) %MON dynstat_eta_min              =  -1.0072652649323E+00
(PID.TID 0000.0001) %MON dynstat_eta_mean             =  -4.7178204358557E-17
(PID.TID 0000.0001) %MON dynstat_eta_sd               =   3.8083180886141E-01
(PID.TID 0000.0001) %MON dynstat_eta_del2             =   1.8748212655885E-02
(PID.TID 0000.0001) %MON dynstat_uvel_max             =   2.0053635979411E-01
(PID.TID 0000.0001) %MON dynstat_uvel_min             =  -1.9628260016734E-01
(PID.TID 0000.0001) %MON dynstat_uvel_mean            =  -5.0813551513364E-03
(PID.TID 0000.0001) %MON dynstat_uvel_sd              =   2.0859112800401E-02
(PID.TID 0000.0001) %MON dynstat_uvel_del2            =   5.5509647333596E-03
(PID.TID 0000.0001) %MON dynstat_vvel_max             =   1.5676103378303E-01
(PID.TID 0000.0001) %MON dynstat_vvel_min             =  -1.5375089495736E-01
(PID.TID 0000.0001) %MON dynstat_vvel_mean            =   3.1119677645687E-03
(PID.TID 0000.0001) %MON dynstat_vvel_sd              =   1.6472160460574E-02
(PID.TID 0000.0001) %MON dynstat_vvel_del2            =   5.3233686006099E-03
(PID.TID 0000.0001) %MON dynstat_wvel_max             =   4.0456017778369E-04
(PID.TID 0000.0001) %MON dynstat_wvel_min             =  -3.8294700110152E-04
(PID.TID 0000.0001) %MON dynstat_wvel_mean            =  -1.7627287308060E-22
(PID.TID 0000.0001) %MON dynstat_wvel_sd              =   3.2606679676777E-05
(PID.TID 0000.0001) %MON dynstat_wvel_del2            =   1.2890106960033E-05
(PID.TID 0000.0001) %MON dynstat_theta_max            =   2.9467802273755E+01
(PID.TID 0000.0001) %MON dynstat_theta_min            =  -1.9414390989567E+00
(PID.TID 0000.0001) %MON dynstat_theta_mean           =   3.5938199714048E+00
(PID.TID 0000.0001) %MON dynstat_theta_sd             =   4.3433283841375E+00
(PID.TID 0000.0001) %MON dynstat_theta_del2           =   1.3444971062100E-01
(PID.TID 0000.0001) %MON dynstat_salt_max             =   3.7413145850162E+01
(PID.TID 0000.0001) %MON dynstat_salt_min             =   2.9801744376518E+01
(PID.TID 0000.0001) %MON dynstat_salt_mean            =   3.4716364986286E+01
(PID.TID 0000.0001) %MON dynstat_salt_sd              =   2.9473929263376E-01
(PID.TID 0000.0001) %MON dynstat_salt_del2            =   2.5138891683400E-02
(PID.TID 0000.0001) %MON advcfl_uvel_max              =   3.3511190176646E-02
(PID.TID 0000.0001) %MON advcfl_vvel_max              =   1.5228077359663E-02
(PID.TID 0000.0001) %MON advcfl_wvel_max              =   1.4929202471435E-01
(PID.TID 0000.0001) %MON advcfl_W_hf_max              =   1.0895871929189E-01
(PID.TID 0000.0001) %MON pe_b_mean                    =   1.8558703408869E-04
(PID.TID 0000.0001) %MON ke_max                       =   2.4046244914205E-02
(PID.TID 0000.0001) %MON ke_mean                      =   3.3556477123621E-04
(PID.TID 0000.0001) %MON ke_vol                       =   1.3226782436723E+18
(PID.TID 0000.0001) %MON vort_r_min                   =  -7.4539942976679E-07
(PID.TID 0000.0001) %MON vort_r_max                   =   6.3202724237374E-07
(PID.TID 0000.0001) %MON vort_a_mean                  =  -2.5205769124029E-05
(PID.TID 0000.0001) %MON vort_a_sd                    =   7.3402262161679E-05
(PID.TID 0000.0001) %MON vort_p_mean                  =  -3.1758669218019E-05
(PID.TID 0000.0001) %MON vort_p_sd                    =   1.3126147821534E-04
(PID.TID 0000.0001) %MON surfExpan_theta_mean         =  -6.4004385771665E-06
(PID.TID 0000.0001) %MON surfExpan_salt_mean          =  -2.0171599380154E-06
(PID.TID 0000.0001) // =======================================================
(PID.TID 0000.0001) // End MONITOR dynamic field statistics
(PID.TID 0000.0001) // =======================================================
 S/R EXTERNAL_FIELDS_LOAD: Reading new data  1296000. 30
(PID.TID 0000.0001)  MDSREADFIELD: opening global file: trenberth_taux.bin
(PID.TID 0000.0001)  MDSREADFIELD: opening global file: trenberth_taux.bin
(PID.TID 0000.0001)  MDSREADFIELD: opening global file: trenberth_tauy.bin
(PID.TID 0000.0001)  MDSREADFIELD: opening global file: trenberth_tauy.bin
(PID.TID 0000.0001)  MDSREADFIELD: opening global file: ncep_qnet.bin
(PID.TID 0000.0001)  MDSREADFIELD: opening global file: ncep_qnet.bin
(PID.TID 0000.0001)  MDSREADFIELD: opening global file: lev_sst.bin
(PID.TID 0000.0001)  MDSREADFIELD: opening global file: lev_sst.bin
(PID.TID 0000.0001)  MDSREADFIELD: opening global file: lev_sss.bin
(PID.TID 0000.0001)  MDSREADFIELD: opening global file: lev_sss.bin
time,SST,SSS,fu,fv,Q,E-P,i0,i1,a,b =   1.2960E+06  9.5843E-01  3.4715E+01 -3.5633E-02 -5.7257E-02  2.6577E+02  0.0000E+00     1     2  0.0000E+00  1.0000E+00
time,fu0,fu1,fu =   1.2960E+06 -3.5633E-02 -1.4435E-02 -3.5633E-02  0.0000E+00  1.0000E+00
 cg2d: Sum(rhs),rhsMax =   2.20833767938799E-13  1.18840510750241E+01
(PID.TID 0000.0001)                    cg2d_init_res =    6.06247069803331E-01
(PID.TID 0000.0001)                       cg2d_iters =    24
(PID.TID 0000.0001)                         cg2d_res =    8.38530988405422E-14
(PID.TID 0000.0001) // =======================================================
(PID.TID 0000.0001) // Begin MONITOR dynamic field statistics
(PID.TID 0000.0001) // =======================================================
(PID.TID 0000.0001) %MON time_tsnumber                =                    31
(PID.TID 0000.0001) %MON time_secondsf                =   1.3392000000000E+06
(PID.TID 0000.0001) %MON dynstat_eta_max              =   1.3963430480829E+00
(PID.TID 0000.0001) %MON dynstat_eta_min              =  -1.0227280305349E+00
(PID.TID 0000.0001) %MON dynstat_eta_mean             =   1.3101711554365E-16
(PID.TID 0000.0001) %MON dynstat_eta_sd               =   3.8038547607857E-01
(PID.TID 0000.0001) %MON dynstat_eta_del2             =   1.8860401897844E-02
(PID.TID 0000.0001) %MON dynstat_uvel_max             =   1.9899663023848E-01
(PID.TID 0000.0001) %MON dynstat_uvel_min             =  -1.9763373117002E-01
(PID.TID 0000.0001) %MON dynstat_uvel_mean            =  -4.6967244837556E-03
(PID.TID 0000.0001) %MON dynstat_uvel_sd              =   2.0627744296555E-02
(PID.TID 0000.0001) %MON dynstat_uvel_del2            =   5.5905316685562E-03
(PID.TID 0000.0001) %MON dynstat_vvel_max             =   1.5724576880754E-01
(PID.TID 0000.0001) %MON dynstat_vvel_min             =  -1.5016753385462E-01
(PID.TID 0000.0001) %MON dynstat_vvel_mean            =   3.2822723804238E-03
(PID.TID 0000.0001) %MON dynstat_vvel_sd              =   1.6533655229417E-02
(PID.TID 0000.0001) %MON dynstat_vvel_del2            =   5.3145691248405E-03
(PID.TID 0000.0001) %MON dynstat_wvel_max             =   3.9746869308493E-04
(PID.TID 0000.0001) %MON dynstat_wvel_min             =  -3.8146984326244E-04
(PID.TID 0000.0001) %MON dynstat_wvel_mean            =   1.2333250856346E-21
(PID.TID 0000.0001) %MON dynstat_wvel_sd              =   3.2306617374397E-05
(PID.TID 0000.0001) %MON dynstat_wvel_del2            =   1.2740828404526E-05
(PID.TID 0000.0001) %MON dynstat_theta_max            =   2.9478435634186E+01
(PID.TID 0000.0001) %MON dynstat_theta_min            =  -1.9426310110911E+00
(PID.TID 0000.0001) %MON dynstat_theta_mean           =   3.5939242963376E+00
(PID.TID 0000.0001) %MON dynstat_theta_sd             =   4.3438876729395E+00
(PID.TID 0000.0001) %MON dynstat_theta_del2           =   1.3436794424117E-01
(PID.TID 0000.0001) %MON dynstat_salt_max             =   3.7412116938815E+01
(PID.TID 0000.0001) %MON dynstat_salt_min             =   2.9802248043314E+01
(PID.TID 0000.0001) %MON dynstat_salt_mean            =   3.4716380246785E+01
(PID.TID 0000.0001) %MON dynstat_salt_sd              =   2.9468029905213E-01
(PID.TID 0000.0001) %MON dynstat_salt_del2            =   2.5126432336899E-02
(PID.TID 0000.0001) %MON advcfl_uvel_max              =   3.3624495959829E-02
(PID.TID 0000.0001) %MON advcfl_vvel_max              =   1.5275165480187E-02
(PID.TID 0000.0001) %MON advcfl_wvel_max              =   1.5530141578436E-01
(PID.TID 0000.0001) %MON advcfl_W_hf_max              =   1.1373105996906E-01
(PID.TID 0000.0001) %MON pe_b_mean                    =   1.8515227504174E-04
(PID.TID 0000.0001) %MON ke_max                       =   2.4265227054715E-02
(PID.TID 0000.0001) %MON ke_mean                      =   3.3089535710015E-04
(PID.TID 0000.0001) %MON ke_vol                       =   1.3226782436723E+18
(PID.TID 0000.0001) %MON vort_r_min                   =  -7.5103953035623E-07
(PID.TID 0000.0001) %MON vort_r_max                   =   6.2899413116456E-07
(PID.TID 0000.0001) %MON vort_a_mean                  =  -2.5205769154847E-05
(PID.TID 0000.0001) %MON vort_a_sd                    =   7.3402346685009E-05
(PID.TID 0000.0001) %MON vort_p_mean                  =  -3.1758669256849E-05
(PID.TID 0000.0001) %MON vort_p_sd                    =   1.3126166415350E-04
(PID.TID 0000.0001) %MON surfExpan_theta_mean         =  -5.7298239127485E-06
(PID.TID 0000.0001) %MON surfExpan_salt_mean          =  -1.6280487083595E-06
(PID.TID 0000.0001) // =======================================================
(PID.TID 0000.0001) // End MONITOR dynamic field statistics
(PID.TID 0000.0001) // =======================================================
time,SST,SSS,fu,fv,Q,E-P,i0,i1,a,b =   1.3392E+06  9.3359E-01  3.4710E+01 -3.5280E-02 -5.6596E-02  2.6535E+02  0.0000E+00     1     2  1.6667E-02  9.8333E-01
time,fu0,fu1,fu =   1.3392E+06 -3.5633E-02 -1.4435E-02 -3.5280E-02  1.6667E-02  9.8333E-01
 cg2d: Sum(rhs),rhsMax =   9.84906600720592E-14  1.08860124066786E+01
(PID.TID 0000.0001)                    cg2d_init_res =    6.60365313717289E-01
(PID.TID 0000.0001)                       cg2d_iters =    24
(PID.TID 0000.0001)                         cg2d_res =    6.71489197703131E-14
(PID.TID 0000.0001) // =======================================================
(PID.TID 0000.0001) // Begin MONITOR dynamic field statistics
(PID.TID 0000.0001) // =======================================================
(PID.TID 0000.0001) %MON time_tsnumber                =                    32
(PID.TID 0000.0001) %MON time_secondsf                =   1.3824000000000E+06
(PID.TID 0000.0001) %MON dynstat_eta_max              =   1.2791861150402E+00
(PID.TID 0000.0001) %MON dynstat_eta_min              =  -1.0353472540319E+00
(PID.TID 0000.0001) %MON dynstat_eta_mean             =  -4.1169639973962E-17
(PID.TID 0000.0001) %MON dynstat_eta_sd               =   3.8055397382042E-01
(PID.TID 0000.0001) %MON dynstat_eta_del2             =   1.8925303008211E-02
(PID.TID 0000.0001) %MON dynstat_uvel_max             =   2.0044650829010E-01
(PID.TID 0000.0001) %MON dynstat_uvel_min             =  -1.9842985625364E-01
(PID.TID 0000.0001) %MON dynstat_uvel_mean            =  -4.3516611248689E-03
(PID.TID 0000.0001) %MON dynstat_uvel_sd              =   2.0356270659650E-02
(PID.TID 0000.0001) %MON dynstat_uvel_del2            =   5.6255432868937E-03
(PID.TID 0000.0001) %MON dynstat_vvel_max             =   1.6191516688545E-01
(PID.TID 0000.0001) %MON dynstat_vvel_min             =  -1.5272448321382E-01
(PID.TID 0000.0001) %MON dynstat_vvel_mean            =   3.4397948941873E-03
(PID.TID 0000.0001) %MON dynstat_vvel_sd              =   1.6576923002401E-02
(PID.TID 0000.0001) %MON dynstat_vvel_del2            =   5.3030338097627E-03
(PID.TID 0000.0001) %MON dynstat_wvel_max             =   3.8812766818068E-04
(PID.TID 0000.0001) %MON dynstat_wvel_min             =  -3.7838363991403E-04
(PID.TID 0000.0001) %MON dynstat_wvel_mean            =  -5.0966324232418E-22
(PID.TID 0000.0001) %MON dynstat_wvel_sd              =   3.2065036883817E-05
(PID.TID 0000.0001) %MON dynstat_wvel_del2            =   1.2632347747093E-05
(PID.TID 0000.0001) %MON dynstat_theta_max            =   2.9493556518381E+01
(PID.TID 0000.0001) %MON dynstat_theta_min            =  -1.9434247110593E+00
(PID.TID 0000.0001) %MON dynstat_theta_mean           =   3.5940108443476E+00
(PID.TID 0000.0001) %MON dynstat_theta_sd             =   4.3444932537379E+00
(PID.TID 0000.0001) %MON dynstat_theta_del2           =   1.3431173862490E-01
(PID.TID 0000.0001) %MON dynstat_salt_max             =   3.7411008972568E+01
(PID.TID 0000.0001) %MON dynstat_salt_min             =   2.9802776370019E+01
(PID.TID 0000.0001) %MON dynstat_salt_mean            =   3.4716389995332E+01
(PID.TID 0000.0001) %MON dynstat_salt_sd              =   2.9461996881753E-01
(PID.TID 0000.0001) %MON dynstat_salt_del2            =   2.5105977825543E-02
(PID.TID 0000.0001) %MON advcfl_uvel_max              =   3.3646211137539E-02
(PID.TID 0000.0001) %MON advcfl_vvel_max              =   1.5728760059385E-02
(PID.TID 0000.0001) %MON advcfl_wvel_max              =   1.6870598358145E-01
(PID.TID 0000.0001) %MON advcfl_W_hf_max              =   1.2084120007988E-01
(PID.TID 0000.0001) %MON pe_b_mean                    =   1.8531634360886E-04
(PID.TID 0000.0001) %MON ke_max                       =   2.4297091072973E-02
(PID.TID 0000.0001) %MON ke_mean                      =   3.2554066059875E-04
(PID.TID 0000.0001) %MON ke_vol                       =   1.3226782436723E+18
(PID.TID 0000.0001) %MON vort_r_min                   =  -7.5752127227842E-07
(PID.TID 0000.0001) %MON vort_r_max                   =   6.2717441153192E-07
(PID.TID 0000.0001) %MON vort_a_mean                  =  -2.5205769182830E-05
(PID.TID 0000.0001) %MON vort_a_sd                    =   7.3402424792703E-05
(PID.TID 0000.0001) %MON vort_p_mean                  =  -3.1758669292107E-05
(PID.TID 0000.0001) %MON vort_p_sd                    =   1.3126183683194E-04
(PID.TID 0000.0001) %MON surfExpan_theta_mean         =  -4.4950908355940E-06
(PID.TID 0000.0001) %MON surfExpan_salt_mean          =  -1.1766359078800E-06
(PID.TID 0000.0001) // =======================================================
(PID.TID 0000.0001) // End MONITOR dynamic field statistics
(PID.TID 0000.0001) // =======================================================
time,SST,SSS,fu,fv,Q,E-P,i0,i1,a,b =   1.3824E+06  9.0875E-01  3.4705E+01 -3.4926E-02 -5.5936E-02  2.6493E+02  0.0000E+00     1     2  3.3333E-02  9.6667E-01
time,fu0,fu1,fu =   1.3824E+06 -3.5633E-02 -1.4435E-02 -3.4926E-02  3.3333E-02  9.6667E-01
 cg2d: Sum(rhs),rhsMax =  -2.66876798438176E-13  1.02664655935504E+01
(PID.TID 0000.0001)                    cg2d_init_res =    6.92575899973053E-01
(PID.TID 0000.0001)                       cg2d_iters =    25
(PID.TID 0000.0001)                         cg2d_res =    2.80467951741795E-14
(PID.TID 0000.0001) // =======================================================
(PID.TID 0000.0001) // Begin MONITOR dynamic field statistics
(PID.TID 0000.0001) // =======================================================
(PID.TID 0000.0001) %MON time_tsnumber                =                    33
(PID.TID 0000.0001) %MON time_secondsf                =   1.4256000000000E+06
(PID.TID 0000.0001) %MON dynstat_eta_max              =   1.1484867117685E+00
(PID.TID 0000.0001) %MON dynstat_eta_min              =  -1.0463106321649E+00
(PID.TID 0000.0001) %MON dynstat_eta_mean             =  -1.4871127930075E-16
(PID.TID 0000.0001) %MON dynstat_eta_sd               =   3.8136146993120E-01
(PID.TID 0000.0001) %MON dynstat_eta_del2             =   1.8936596872391E-02
(PID.TID 0000.0001) %MON dynstat_uvel_max             =   2.1092493034056E-01
(PID.TID 0000.0001) %MON dynstat_uvel_min             =  -1.9869789719682E-01
(PID.TID 0000.0001) %MON dynstat_uvel_mean            =  -4.0475031616355E-03
(PID.TID 0000.0001) %MON dynstat_uvel_sd              =   2.0053461771580E-02
(PID.TID 0000.0001) %MON dynstat_uvel_del2            =   5.6568818452494E-03
(PID.TID 0000.0001) %MON dynstat_vvel_max             =   1.7344439439166E-01
(PID.TID 0000.0001) %MON dynstat_vvel_min             =  -1.5346169145325E-01
(PID.TID 0000.0001) %MON dynstat_vvel_mean            =   3.5771978240428E-03
(PID.TID 0000.0001) %MON dynstat_vvel_sd              =   1.6597174502141E-02
(PID.TID 0000.0001) %MON dynstat_vvel_del2            =   5.2897372285966E-03
(PID.TID 0000.0001) %MON dynstat_wvel_max             =   3.7667328988132E-04
(PID.TID 0000.0001) %MON dynstat_wvel_min             =  -3.7369068324564E-04
(PID.TID 0000.0001) %MON dynstat_wvel_mean            =  -2.8867871316825E-22
(PID.TID 0000.0001) %MON dynstat_wvel_sd              =   3.1864681920990E-05
(PID.TID 0000.0001) %MON dynstat_wvel_del2            =   1.2549909478087E-05
(PID.TID 0000.0001) %MON dynstat_theta_max            =   2.9507682267231E+01
(PID.TID 0000.0001) %MON dynstat_theta_min            =  -1.9437850092289E+00
(PID.TID 0000.0001) %MON dynstat_theta_mean           =   3.5940763017513E+00
(PID.TID 0000.0001) %MON dynstat_theta_sd             =   4.3451118584292E+00
(PID.TID 0000.0001) %MON dynstat_theta_del2           =   1.3422565569581E-01
(PID.TID 0000.0001) %MON dynstat_salt_max             =   3.7409827509194E+01
(PID.TID 0000.0001) %MON dynstat_salt_min             =   2.9803318704629E+01
(PID.TID 0000.0001) %MON dynstat_salt_mean            =   3.4716394001289E+01
(PID.TID 0000.0001) %MON dynstat_salt_sd              =   2.9455737709586E-01
(PID.TID 0000.0001) %MON dynstat_salt_del2            =   2.5084122893411E-02
(PID.TID 0000.0001) %MON advcfl_uvel_max              =   3.3585870107392E-02
(PID.TID 0000.0001) %MON advcfl_vvel_max              =   1.6848732058323E-02
(PID.TID 0000.0001) %MON advcfl_wvel_max              =   1.9182479393005E-01
(PID.TID 0000.0001) %MON advcfl_W_hf_max              =   1.3680846114163E-01
(PID.TID 0000.0001) %MON pe_b_mean                    =   1.8610362215374E-04
(PID.TID 0000.0001) %MON ke_max                       =   2.4129088426056E-02
(PID.TID 0000.0001) %MON ke_mean                      =   3.1955530399482E-04
(PID.TID 0000.0001) %MON ke_vol                       =   1.3226782436723E+18
(PID.TID 0000.0001) %MON vort_r_min                   =  -7.6484975486107E-07
(PID.TID 0000.0001) %MON vort_r_max                   =   6.2686969616681E-07
(PID.TID 0000.0001) %MON vort_a_mean                  =  -2.5205769205704E-05
(PID.TID 0000.0001) %MON vort_a_sd                    =   7.3402495896843E-05
(PID.TID 0000.0001) %MON vort_p_mean                  =  -3.1758669320928E-05
(PID.TID 0000.0001) %MON vort_p_sd                    =   1.3126199637781E-04
(PID.TID 0000.0001) %MON surfExpan_theta_mean         =  -2.8501769994845E-06
(PID.TID 0000.0001) %MON surfExpan_salt_mean          =  -6.8872136769412E-07
(PID.TID 0000.0001) // =======================================================
(PID.TID 0000.0001) // End MONITOR dynamic field statistics
(PID.TID 0000.0001) // =======================================================
time,SST,SSS,fu,fv,Q,E-P,i0,i1,a,b =   1.4256E+06  8.8391E-01  3.4700E+01 -3.4573E-02 -5.5276E-02  2.6451E+02  0.0000E+00     1     2  5.0000E-02  9.5000E-01
time,fu0,fu1,fu =   1.4256E+06 -3.5633E-02 -1.4435E-02 -3.4573E-02  5.0000E-02  9.5000E-01
 cg2d: Sum(rhs),rhsMax =  -4.02587685410793E-13  1.03997408672597E+01
(PID.TID 0000.0001)                    cg2d_init_res =    6.69987635076317E-01
(PID.TID 0000.0001)                       cg2d_iters =    25
(PID.TID 0000.0001)                         cg2d_res =    3.21851482308737E-14
(PID.TID 0000.0001) // =======================================================
(PID.TID 0000.0001) // Begin MONITOR dynamic field statistics
(PID.TID 0000.0001) // =======================================================
(PID.TID 0000.0001) %MON time_tsnumber                =                    34
(PID.TID 0000.0001) %MON time_secondsf                =   1.4688000000000E+06
(PID.TID 0000.0001) %MON dynstat_eta_max              =   1.1625651812863E+00
(PID.TID 0000.0001) %MON dynstat_eta_min              =  -1.0540202950936E+00
(PID.TID 0000.0001) %MON dynstat_eta_mean             =  -7.1981003861809E-17
(PID.TID 0000.0001) %MON dynstat_eta_sd               =   3.8277632058975E-01
(PID.TID 0000.0001) %MON dynstat_eta_del2             =   1.8952840924904E-02
(PID.TID 0000.0001) %MON dynstat_uvel_max             =   2.1891295790110E-01
(PID.TID 0000.0001) %MON dynstat_uvel_min             =  -1.9846638422178E-01
(PID.TID 0000.0001) %MON dynstat_uvel_mean            =  -3.7841111541503E-03
(PID.TID 0000.0001) %MON dynstat_uvel_sd              =   1.9728881887704E-02
(PID.TID 0000.0001) %MON dynstat_uvel_del2            =   5.6839575427398E-03
(PID.TID 0000.0001) %MON dynstat_vvel_max             =   1.8352459469386E-01
(PID.TID 0000.0001) %MON dynstat_vvel_min             =  -1.5255280289671E-01
(PID.TID 0000.0001) %MON dynstat_vvel_mean            =   3.6881863721380E-03
(PID.TID 0000.0001) %MON dynstat_vvel_sd              =   1.6591177724930E-02
(PID.TID 0000.0001) %MON dynstat_vvel_del2            =   5.2769226730235E-03
(PID.TID 0000.0001) %MON dynstat_wvel_max             =   3.6325627655393E-04
(PID.TID 0000.0001) %MON dynstat_wvel_min             =  -3.6744893778271E-04
(PID.TID 0000.0001) %MON dynstat_wvel_mean            =   1.5759142137233E-22
(PID.TID 0000.0001) %MON dynstat_wvel_sd              =   3.1691410382328E-05
(PID.TID 0000.0001) %MON dynstat_wvel_del2            =   1.2489753518597E-05
(PID.TID 0000.0001) %MON dynstat_theta_max            =   2.9520603890970E+01
(PID.TID 0000.0001) %MON dynstat_theta_min            =  -1.9436938368444E+00
(PID.TID 0000.0001) %MON dynstat_theta_mean           =   3.5941186575989E+00
(PID.TID 0000.0001) %MON dynstat_theta_sd             =   4.3457144405489E+00
(PID.TID 0000.0001) %MON dynstat_theta_del2           =   1.3413456128996E-01
(PID.TID 0000.0001) %MON dynstat_salt_max             =   3.7408558220992E+01
(PID.TID 0000.0001) %MON dynstat_salt_min             =   2.9803856772111E+01
(PID.TID 0000.0001) %MON dynstat_salt_mean            =   3.4716392313485E+01
(PID.TID 0000.0001) %MON dynstat_salt_sd              =   2.9449266552314E-01
(PID.TID 0000.0001) %MON dynstat_salt_del2            =   2.5066382278178E-02
(PID.TID 0000.0001) %MON advcfl_uvel_max              =   3.3453666428254E-02
(PID.TID 0000.0001) %MON advcfl_vvel_max              =   1.7827942684194E-02
(PID.TID 0000.0001) %MON advcfl_wvel_max              =   2.0930676909559E-01
(PID.TID 0000.0001) %MON advcfl_W_hf_max              =   1.4875656312864E-01
(PID.TID 0000.0001) %MON pe_b_mean                    =   1.8748707219215E-04
(PID.TID 0000.0001) %MON ke_max                       =   2.3752068681562E-02
(PID.TID 0000.0001) %MON ke_mean                      =   3.1302445019291E-04
(PID.TID 0000.0001) %MON ke_vol                       =   1.3226782436723E+18
(PID.TID 0000.0001) %MON vort_r_min                   =  -7.7291464501356E-07
(PID.TID 0000.0001) %MON vort_r_max                   =   6.2819263450026E-07
(PID.TID 0000.0001) %MON vort_a_mean                  =  -2.5205769221688E-05
(PID.TID 0000.0001) %MON vort_a_sd                    =   7.3402559675078E-05
(PID.TID 0000.0001) %MON vort_p_mean                  =  -3.1758669341067E-05
(PID.TID 0000.0001) %MON vort_p_sd                    =   1.3126214297537E-04
(PID.TID 0000.0001) %MON surfExpan_theta_mean         =  -9.3871165979331E-07
(PID.TID 0000.0001) %MON surfExpan_salt_mean          =  -1.8979265293805E-07
(PID.TID 0000.0001) // =======================================================
(PID.TID 0000.0001) // End MONITOR dynamic field statistics
(PID.TID 0000.0001) // =======================================================
time,SST,SSS,fu,fv,Q,E-P,i0,i1,a,b =   1.4688E+06  8.5907E-01  3.4695E+01 -3.4220E-02 -5.4615E-02  2.6408E+02  0.0000E+00     1     2  6.6667E-02  9.3333E-01
time,fu0,fu1,fu =   1.4688E+06 -3.5633E-02 -1.4435E-02 -3.4220E-02  6.6667E-02  9.3333E-01
 cg2d: Sum(rhs),rhsMax =   3.78655440336217E-13  1.04409401141515E+01
(PID.TID 0000.0001)                    cg2d_init_res =    6.48587769052543E-01
(PID.TID 0000.0001)                       cg2d_iters =    25
(PID.TID 0000.0001)                         cg2d_res =    3.48262255040130E-14
(PID.TID 0000.0001) // =======================================================
(PID.TID 0000.0001) // Begin MONITOR dynamic field statistics
(PID.TID 0000.0001) // =======================================================
(PID.TID 0000.0001) %MON time_tsnumber                =                    35
(PID.TID 0000.0001) %MON time_secondsf                =   1.5120000000000E+06
(PID.TID 0000.0001) %MON dynstat_eta_max              =   1.1663992861784E+00
(PID.TID 0000.0001) %MON dynstat_eta_min              =  -1.0578329556951E+00
(PID.TID 0000.0001) %MON dynstat_eta_mean             =   1.0829271419327E-16
(PID.TID 0000.0001) %MON dynstat_eta_sd               =   3.8471704791157E-01
(PID.TID 0000.0001) %MON dynstat_eta_del2             =   1.8968050097092E-02
(PID.TID 0000.0001) %MON dynstat_uvel_max             =   2.2419147189654E-01
(PID.TID 0000.0001) %MON dynstat_uvel_min             =  -1.9776513057565E-01
(PID.TID 0000.0001) %MON dynstat_uvel_mean            =  -3.5600164681062E-03
(PID.TID 0000.0001) %MON dynstat_uvel_sd              =   1.9392570142561E-02
(PID.TID 0000.0001) %MON dynstat_uvel_del2            =   5.7080056393103E-03
(PID.TID 0000.0001) %MON dynstat_vvel_max             =   1.9198363788082E-01
(PID.TID 0000.0001) %MON dynstat_vvel_min             =  -1.5752541826690E-01
(PID.TID 0000.0001) %MON dynstat_vvel_mean            =   3.7676475475646E-03
(PID.TID 0000.0001) %MON dynstat_vvel_sd              =   1.6557457777854E-02
(PID.TID 0000.0001) %MON dynstat_vvel_del2            =   5.2648412890830E-03
(PID.TID 0000.0001) %MON dynstat_wvel_max             =   3.4804531014066E-04
(PID.TID 0000.0001) %MON dynstat_wvel_min             =  -3.5977252489094E-04
(PID.TID 0000.0001) %MON dynstat_wvel_mean            =   4.4619639591741E-23
(PID.TID 0000.0001) %MON dynstat_wvel_sd              =   3.1535610273739E-05
(PID.TID 0000.0001) %MON dynstat_wvel_del2            =   1.2452822377243E-05
(PID.TID 0000.0001) %MON dynstat_theta_max            =   2.9532184130505E+01
(PID.TID 0000.0001) %MON dynstat_theta_min            =  -1.9430662885129E+00
(PID.TID 0000.0001) %MON dynstat_theta_mean           =   3.5941374382314E+00
(PID.TID 0000.0001) %MON dynstat_theta_sd             =   4.3462757743217E+00
(PID.TID 0000.0001) %MON dynstat_theta_del2           =   1.3404350196159E-01
(PID.TID 0000.0001) %MON dynstat_salt_max             =   3.7407187974859E+01
(PID.TID 0000.0001) %MON dynstat_salt_min             =   2.9804372197707E+01
(PID.TID 0000.0001) %MON dynstat_salt_mean            =   3.4716385246611E+01
(PID.TID 0000.0001) %MON dynstat_salt_sd              =   2.9442592162643E-01
(PID.TID 0000.0001) %MON dynstat_salt_del2            =   2.5046477627537E-02
(PID.TID 0000.0001) %MON advcfl_uvel_max              =   3.3260378976488E-02
(PID.TID 0000.0001) %MON advcfl_vvel_max              =   1.8649670896436E-02
(PID.TID 0000.0001) %MON advcfl_wvel_max              =   2.2058814738257E-01
(PID.TID 0000.0001) %MON advcfl_W_hf_max              =   1.5629911883526E-01
(PID.TID 0000.0001) %MON pe_b_mean                    =   1.8939306102501E-04
(PID.TID 0000.0001) %MON ke_max                       =   2.3163535313826E-02
(PID.TID 0000.0001) %MON ke_mean                      =   3.0606348195153E-04
(PID.TID 0000.0001) %MON ke_vol                       =   1.3226782436723E+18
(PID.TID 0000.0001) %MON vort_r_min                   =  -7.8152644873264E-07
(PID.TID 0000.0001) %MON vort_r_max                   =   6.3110654574940E-07
(PID.TID 0000.0001) %MON vort_a_mean                  =  -2.5205769229550E-05
(PID.TID 0000.0001) %MON vort_a_sd                    =   7.3402616058900E-05
(PID.TID 0000.0001) %MON vort_p_mean                  =  -3.1758669350973E-05
(PID.TID 0000.0001) %MON vort_p_sd                    =   1.3126227689458E-04
(PID.TID 0000.0001) %MON surfExpan_theta_mean         =   1.1109366238248E-06
(PID.TID 0000.0001) %MON surfExpan_salt_mean          =   2.9658974243657E-07
(PID.TID 0000.0001) // =======================================================
(PID.TID 0000.0001) // End MONITOR dynamic field statistics
(PID.TID 0000.0001) // =======================================================
time,SST,SSS,fu,fv,Q,E-P,i0,i1,a,b =   1.5120E+06  8.3424E-01  3.4690E+01 -3.3866E-02 -5.3955E-02  2.6366E+02  0.0000E+00     1     2  8.3333E-02  9.1667E-01
time,fu0,fu1,fu =   1.5120E+06 -3.5633E-02 -1.4435E-02 -3.3866E-02  8.3333E-02  9.1667E-01
 cg2d: Sum(rhs),rhsMax =  -4.05370181866260E-14  1.03873049756399E+01
(PID.TID 0000.0001)                    cg2d_init_res =    6.29996066578822E-01
(PID.TID 0000.0001)                       cg2d_iters =    25
(PID.TID 0000.0001)                         cg2d_res =    3.67656163256816E-14
(PID.TID 0000.0001) // =======================================================
(PID.TID 0000.0001) // Begin MONITOR dynamic field statistics
(PID.TID 0000.0001) // =======================================================
(PID.TID 0000.0001) %MON time_tsnumber                =                    36
(PID.TID 0000.0001) %MON time_secondsf                =   1.5552000000000E+06
(PID.TID 0000.0001) %MON dynstat_eta_max              =   1.1596895973098E+00
(PID.TID 0000.0001) %MON dynstat_eta_min              =  -1.0578994752180E+00
(PID.TID 0000.0001) %MON dynstat_eta_mean             =   3.3584516915499E-16
(PID.TID 0000.0001) %MON dynstat_eta_sd               =   3.8706582494977E-01
(PID.TID 0000.0001) %MON dynstat_eta_del2             =   1.8909514249137E-02
(PID.TID 0000.0001) %MON dynstat_uvel_max             =   2.2660785041870E-01
(PID.TID 0000.0001) %MON dynstat_uvel_min             =  -1.9662237764171E-01
(PID.TID 0000.0001) %MON dynstat_uvel_mean            =  -3.3725912125825E-03
(PID.TID 0000.0001) %MON dynstat_uvel_sd              =   1.9054580747888E-02
(PID.TID 0000.0001) %MON dynstat_uvel_del2            =   5.7268170913377E-03
(PID.TID 0000.0001) %MON dynstat_vvel_max             =   1.9867568705455E-01
(PID.TID 0000.0001) %MON dynstat_vvel_min             =  -1.6259205305848E-01
(PID.TID 0000.0001) %MON dynstat_vvel_mean            =   3.8116971958940E-03
(PID.TID 0000.0001) %MON dynstat_vvel_sd              =   1.6496197475879E-02
(PID.TID 0000.0001) %MON dynstat_vvel_del2            =   5.2517492170141E-03
(PID.TID 0000.0001) %MON dynstat_wvel_max             =   3.3122454307676E-04
(PID.TID 0000.0001) %MON dynstat_wvel_min             =  -3.5082643269722E-04
(PID.TID 0000.0001) %MON dynstat_wvel_mean            =  -6.3657173588164E-22
(PID.TID 0000.0001) %MON dynstat_wvel_sd              =   3.1391853651431E-05
(PID.TID 0000.0001) %MON dynstat_wvel_del2            =   1.2437246326769E-05
(PID.TID 0000.0001) %MON dynstat_theta_max            =   2.9542340036564E+01
(PID.TID 0000.0001) %MON dynstat_theta_min            =  -1.9464436713537E+00
(PID.TID 0000.0001) %MON dynstat_theta_mean           =   3.5941331387207E+00
(PID.TID 0000.0001) %MON dynstat_theta_sd             =   4.3467745613884E+00
(PID.TID 0000.0001) %MON dynstat_theta_del2           =   1.3393992172653E-01
(PID.TID 0000.0001) %MON dynstat_salt_max             =   3.7405706287360E+01
(PID.TID 0000.0001) %MON dynstat_salt_min             =   2.9804847433332E+01
(PID.TID 0000.0001) %MON dynstat_salt_mean            =   3.4716373336064E+01
(PID.TID 0000.0001) %MON dynstat_salt_sd              =   2.9435774533104E-01
(PID.TID 0000.0001) %MON dynstat_salt_del2            =   2.5023292903717E-02
(PID.TID 0000.0001) %MON advcfl_uvel_max              =   3.3017216968691E-02
(PID.TID 0000.0001) %MON advcfl_vvel_max              =   1.9299749809882E-02
(PID.TID 0000.0001) %MON advcfl_wvel_max              =   2.2530716706481E-01
(PID.TID 0000.0001) %MON advcfl_W_hf_max              =   1.5919401554539E-01
(PID.TID 0000.0001) %MON pe_b_mean                    =   1.9171268788698E-04
(PID.TID 0000.0001) %MON ke_max                       =   2.2368429156457E-02
(PID.TID 0000.0001) %MON ke_mean                      =   2.9881029911090E-04
(PID.TID 0000.0001) %MON ke_vol                       =   1.3226782436723E+18
(PID.TID 0000.0001) %MON vort_r_min                   =  -7.9043429545746E-07
(PID.TID 0000.0001) %MON vort_r_max                   =   6.3544218868650E-07
(PID.TID 0000.0001) %MON vort_a_mean                  =  -2.5205769228641E-05
(PID.TID 0000.0001) %MON vort_a_sd                    =   7.3402665216041E-05
(PID.TID 0000.0001) %MON vort_p_mean                  =  -3.1758669349828E-05
(PID.TID 0000.0001) %MON vort_p_sd                    =   1.3126239851752E-04
(PID.TID 0000.0001) %MON surfExpan_theta_mean         =   3.1843304449952E-06
(PID.TID 0000.0001) %MON surfExpan_salt_mean          =   7.4919930452464E-07
(PID.TID 0000.0001) // =======================================================
(PID.TID 0000.0001) // End MONITOR dynamic field statistics
(PID.TID 0000.0001) // =======================================================
time,SST,SSS,fu,fv,Q,E-P,i0,i1,a,b =   1.5552E+06  8.0940E-01  3.4685E+01 -3.3513E-02 -5.3295E-02  2.6324E+02  0.0000E+00     1     2  1.0000E-01  9.0000E-01
time,fu0,fu1,fu =   1.5552E+06 -3.5633E-02 -1.4435E-02 -3.3513E-02  1.0000E-01  9.0000E-01
 cg2d: Sum(rhs),rhsMax =   2.16340834136020E-13  1.02380213136721E+01
(PID.TID 0000.0001)                    cg2d_init_res =    6.16439639907252E-01
(PID.TID 0000.0001)                       cg2d_iters =    25
(PID.TID 0000.0001)                         cg2d_res =    3.81959099270445E-14
(PID.TID 0000.0001) // =======================================================
(PID.TID 0000.0001) // Begin MONITOR dynamic field statistics
(PID.TID 0000.0001) // =======================================================
(PID.TID 0000.0001) %MON time_tsnumber                =                    37
(PID.TID 0000.0001) %MON time_secondsf                =   1.5984000000000E+06
(PID.TID 0000.0001) %MON dynstat_eta_max              =   1.1423478467059E+00
(PID.TID 0000.0001) %MON dynstat_eta_min              =  -1.0548801070507E+00
(PID.TID 0000.0001) %MON dynstat_eta_mean             =   1.6545017311279E-16
(PID.TID 0000.0001) %MON dynstat_eta_sd               =   3.8968622272870E-01
(PID.TID 0000.0001) %MON dynstat_eta_del2             =   1.8780475348165E-02
(PID.TID 0000.0001) %MON dynstat_uvel_max             =   2.2607849475664E-01
(PID.TID 0000.0001) %MON dynstat_uvel_min             =  -1.9506271738557E-01
(PID.TID 0000.0001) %MON dynstat_uvel_mean            =  -3.2182489229986E-03
(PID.TID 0000.0001) %MON dynstat_uvel_sd              =   1.8724450040420E-02
(PID.TID 0000.0001) %MON dynstat_uvel_del2            =   5.7404515853640E-03
(PID.TID 0000.0001) %MON dynstat_vvel_max             =   2.0348662585321E-01
(PID.TID 0000.0001) %MON dynstat_vvel_min             =  -1.6469879304286E-01
(PID.TID 0000.0001) %MON dynstat_vvel_mean            =   3.8176829321389E-03
(PID.TID 0000.0001) %MON dynstat_vvel_sd              =   1.6408923556101E-02
(PID.TID 0000.0001) %MON dynstat_vvel_del2            =   5.2397310389818E-03
(PID.TID 0000.0001) %MON dynstat_wvel_max             =   3.1298872987425E-04
(PID.TID 0000.0001) %MON dynstat_wvel_min             =  -3.4081621640844E-04
(PID.TID 0000.0001) %MON dynstat_wvel_mean            =   4.2976585376045E-22
(PID.TID 0000.0001) %MON dynstat_wvel_sd              =   3.1257589295098E-05
(PID.TID 0000.0001) %MON dynstat_wvel_del2            =   1.2437995592929E-05
(PID.TID 0000.0001) %MON dynstat_theta_max            =   2.9551026959638E+01
(PID.TID 0000.0001) %MON dynstat_theta_min            =  -1.9469980188843E+00
(PID.TID 0000.0001) %MON dynstat_theta_mean           =   3.5941072644547E+00
(PID.TID 0000.0001) %MON dynstat_theta_sd             =   4.3471939308480E+00
(PID.TID 0000.0001) %MON dynstat_theta_del2           =   1.3381814824439E-01
(PID.TID 0000.0001) %MON dynstat_salt_max             =   3.7404098615670E+01
(PID.TID 0000.0001) %MON dynstat_salt_min             =   2.9805266571873E+01
(PID.TID 0000.0001) %MON dynstat_salt_mean            =   3.4716357291049E+01
(PID.TID 0000.0001) %MON dynstat_salt_sd              =   2.9428845606589E-01
(PID.TID 0000.0001) %MON dynstat_salt_del2            =   2.4998796715286E-02
(PID.TID 0000.0001) %MON advcfl_uvel_max              =   3.2735586019619E-02
(PID.TID 0000.0001) %MON advcfl_vvel_max              =   1.9767093935080E-02
(PID.TID 0000.0001) %MON advcfl_wvel_max              =   2.2331709491258E-01
(PID.TID 0000.0001) %MON advcfl_W_hf_max              =   1.5735187132108E-01
(PID.TID 0000.0001) %MON pe_b_mean                    =   1.9431722667561E-04
(PID.TID 0000.0001) %MON ke_max                       =   2.1379478374826E-02
(PID.TID 0000.0001) %MON ke_mean                      =   2.9141316623817E-04
(PID.TID 0000.0001) %MON ke_vol                       =   1.3226782436723E+18
(PID.TID 0000.0001) %MON vort_r_min                   =  -7.9934624407735E-07
(PID.TID 0000.0001) %MON vort_r_max                   =   6.4092311699329E-07
(PID.TID 0000.0001) %MON vort_a_mean                  =  -2.5205769218898E-05
(PID.TID 0000.0001) %MON vort_a_sd                    =   7.3402707525905E-05
(PID.TID 0000.0001) %MON vort_p_mean                  =  -3.1758669337552E-05
(PID.TID 0000.0001) %MON vort_p_sd                    =   1.3126250838068E-04
(PID.TID 0000.0001) %MON surfExpan_theta_mean         =   5.1819513052750E-06
(PID.TID 0000.0001) %MON surfExpan_salt_mean          =   1.1498037776408E-06
(PID.TID 0000.0001) // =======================================================
(PID.TID 0000.0001) // End MONITOR dynamic field statistics
(PID.TID 0000.0001) // =======================================================
time,SST,SSS,fu,fv,Q,E-P,i0,i1,a,b =   1.5984E+06  7.8456E-01  3.4680E+01 -3.3160E-02 -5.2634E-02  2.6282E+02  0.0000E+00     1     2  1.1667E-01  8.8333E-01
time,fu0,fu1,fu =   1.5984E+06 -3.5633E-02 -1.4435E-02 -3.3160E-02  1.1667E-01  8.8333E-01
 cg2d: Sum(rhs),rhsMax =  -1.51288703786889E-13  9.99413359807043E+00
(PID.TID 0000.0001)                    cg2d_init_res =    6.10424484065089E-01
(PID.TID 0000.0001)                       cg2d_iters =    25
(PID.TID 0000.0001)                         cg2d_res =    3.93399270905268E-14
(PID.TID 0000.0001) // =======================================================
(PID.TID 0000.0001) // Begin MONITOR dynamic field statistics
(PID.TID 0000.0001) // =======================================================
(PID.TID 0000.0001) %MON time_tsnumber                =                    38
(PID.TID 0000.0001) %MON time_secondsf                =   1.6416000000000E+06
(PID.TID 0000.0001) %MON dynstat_eta_max              =   1.1144877568338E+00
(PID.TID 0000.0001) %MON dynstat_eta_min              =  -1.0487794878092E+00
(PID.TID 0000.0001) %MON dynstat_eta_mean             =   1.8754630131332E-16
(PID.TID 0000.0001) %MON dynstat_eta_sd               =   3.9244129010694E-01
(PID.TID 0000.0001) %MON dynstat_eta_del2             =   1.8697796623710E-02
(PID.TID 0000.0001) %MON dynstat_uvel_max             =   2.2258888542664E-01
(PID.TID 0000.0001) %MON dynstat_uvel_min             =  -1.9310584467978E-01
(PID.TID 0000.0001) %MON dynstat_uvel_mean            =  -3.0926640756470E-03
(PID.TID 0000.0001) %MON dynstat_uvel_sd              =   1.8410653967057E-02
(PID.TID 0000.0001) %MON dynstat_uvel_del2            =   5.7490500580540E-03
(PID.TID 0000.0001) %MON dynstat_vvel_max             =   2.0633810030226E-01
(PID.TID 0000.0001) %MON dynstat_vvel_min             =  -1.6380536245876E-01
(PID.TID 0000.0001) %MON dynstat_vvel_mean            =   3.7841464364871E-03
(PID.TID 0000.0001) %MON dynstat_vvel_sd              =   1.6298096485588E-02
(PID.TID 0000.0001) %MON dynstat_vvel_del2            =   5.2285189398296E-03
(PID.TID 0000.0001) %MON dynstat_wvel_max             =   2.9353785555630E-04
(PID.TID 0000.0001) %MON dynstat_wvel_min             =  -3.2997347942678E-04
(PID.TID 0000.0001) %MON dynstat_wvel_mean            =  -6.6292007805703E-23
(PID.TID 0000.0001) %MON dynstat_wvel_sd              =   3.1131125178882E-05
(PID.TID 0000.0001) %MON dynstat_wvel_del2            =   1.2438286548991E-05
(PID.TID 0000.0001) %MON dynstat_theta_max            =   2.9558225530123E+01
(PID.TID 0000.0001) %MON dynstat_theta_min            =  -1.9470284746031E+00
(PID.TID 0000.0001) %MON dynstat_theta_mean           =   3.5940619777035E+00
(PID.TID 0000.0001) %MON dynstat_theta_sd             =   4.3475228264189E+00
(PID.TID 0000.0001) %MON dynstat_theta_del2           =   1.3369162870922E-01
(PID.TID 0000.0001) %MON dynstat_salt_max             =   3.7402359494110E+01
(PID.TID 0000.0001) %MON dynstat_salt_min             =   2.9805616011958E+01
(PID.TID 0000.0001) %MON dynstat_salt_mean            =   3.4716337963857E+01
(PID.TID 0000.0001) %MON dynstat_salt_sd              =   2.9421878398481E-01
(PID.TID 0000.0001) %MON dynstat_salt_del2            =   2.4970705790107E-02
(PID.TID 0000.0001) %MON advcfl_uvel_max              =   3.2426793760994E-02
(PID.TID 0000.0001) %MON advcfl_vvel_max              =   2.0044091811729E-02
(PID.TID 0000.0001) %MON advcfl_wvel_max              =   2.1469283326492E-01
(PID.TID 0000.0001) %MON advcfl_W_hf_max              =   1.5083990871455E-01
(PID.TID 0000.0001) %MON pe_b_mean                    =   1.9707457090964E-04
(PID.TID 0000.0001) %MON ke_max                       =   2.0216939508112E-02
(PID.TID 0000.0001) %MON ke_mean                      =   2.8401723526397E-04
(PID.TID 0000.0001) %MON ke_vol                       =   1.3226782436723E+18
(PID.TID 0000.0001) %MON vort_r_min                   =  -8.0794646089209E-07
(PID.TID 0000.0001) %MON vort_r_max                   =   6.4718903513817E-07
(PID.TID 0000.0001) %MON vort_a_mean                  =  -2.5205769200741E-05
(PID.TID 0000.0001) %MON vort_a_sd                    =   7.3402743549838E-05
(PID.TID 0000.0001) %MON vort_p_mean                  =  -3.1758669314674E-05
(PID.TID 0000.0001) %MON vort_p_sd                    =   1.3126260717906E-04
(PID.TID 0000.0001) %MON surfExpan_theta_mean         =   7.0230651800541E-06
(PID.TID 0000.0001) %MON surfExpan_salt_mean          =   1.4840121286725E-06
(PID.TID 0000.0001) // =======================================================
(PID.TID 0000.0001) // End MONITOR dynamic field statistics
(PID.TID 0000.0001) // =======================================================
time,SST,SSS,fu,fv,Q,E-P,i0,i1,a,b =   1.6416E+06  7.5972E-01  3.4675E+01 -3.2807E-02 -5.1974E-02  2.6240E+02  0.0000E+00     1     2  1.3333E-01  8.6667E-01
time,fu0,fu1,fu =   1.6416E+06 -3.5633E-02 -1.4435E-02 -3.2807E-02  1.3333E-01  8.6667E-01
 cg2d: Sum(rhs),rhsMax =   2.04995742603131E-13  9.65836346008023E+00
(PID.TID 0000.0001)                    cg2d_init_res =    6.14347650092965E-01
(PID.TID 0000.0001)                       cg2d_iters =    25
(PID.TID 0000.0001)                         cg2d_res =    4.03565574028453E-14
(PID.TID 0000.0001) // =======================================================
(PID.TID 0000.0001) // Begin MONITOR dynamic field statistics
(PID.TID 0000.0001) // =======================================================
(PID.TID 0000.0001) %MON time_tsnumber                =                    39
(PID.TID 0000.0001) %MON time_secondsf                =   1.6848000000000E+06
(PID.TID 0000.0001) %MON dynstat_eta_max              =   1.0764073290835E+00
(PID.TID 0000.0001) %MON dynstat_eta_min              =  -1.0401514512121E+00
(PID.TID 0000.0001) %MON dynstat_eta_mean             =   2.5129313673135E-16
(PID.TID 0000.0001) %MON dynstat_eta_sd               =   3.9520842478482E-01
(PID.TID 0000.0001) %MON dynstat_eta_del2             =   1.8718299402893E-02
(PID.TID 0000.0001) %MON dynstat_uvel_max             =   2.1619153376409E-01
(PID.TID 0000.0001) %MON dynstat_uvel_min             =  -1.9076612650303E-01
(PID.TID 0000.0001) %MON dynstat_uvel_mean            =  -2.9910078460779E-03
(PID.TID 0000.0001) %MON dynstat_uvel_sd              =   1.8120119083368E-02
(PID.TID 0000.0001) %MON dynstat_uvel_del2            =   5.7500687425192E-03
(PID.TID 0000.0001) %MON dynstat_vvel_max             =   2.0719014739757E-01
(PID.TID 0000.0001) %MON dynstat_vvel_min             =  -1.5994263848203E-01
(PID.TID 0000.0001) %MON dynstat_vvel_mean            =   3.7107529296147E-03
(PID.TID 0000.0001) %MON dynstat_vvel_sd              =   1.6166752429977E-02
(PID.TID 0000.0001) %MON dynstat_vvel_del2            =   5.2158742979706E-03
(PID.TID 0000.0001) %MON dynstat_wvel_max             =   2.7307130362068E-04
(PID.TID 0000.0001) %MON dynstat_wvel_min             =  -3.1854133308576E-04
(PID.TID 0000.0001) %MON dynstat_wvel_mean            =  -4.3242371449823E-23
(PID.TID 0000.0001) %MON dynstat_wvel_sd              =   3.1009852124058E-05
(PID.TID 0000.0001) %MON dynstat_wvel_del2            =   1.2438440756683E-05
(PID.TID 0000.0001) %MON dynstat_theta_max            =   2.9563931494708E+01
(PID.TID 0000.0001) %MON dynstat_theta_min            =  -1.9468017811931E+00
(PID.TID 0000.0001) %MON dynstat_theta_mean           =   3.5940001025635E+00
(PID.TID 0000.0001) %MON dynstat_theta_sd             =   4.3477532616776E+00
(PID.TID 0000.0001) %MON dynstat_theta_del2           =   1.3358127820731E-01
(PID.TID 0000.0001) %MON dynstat_salt_max             =   3.7400481827536E+01
(PID.TID 0000.0001) %MON dynstat_salt_min             =   2.9805884941031E+01
(PID.TID 0000.0001) %MON dynstat_salt_mean            =   3.4716316290630E+01
(PID.TID 0000.0001) %MON dynstat_salt_sd              =   2.9414919473135E-01
(PID.TID 0000.0001) %MON dynstat_salt_del2            =   2.4941249406992E-02
(PID.TID 0000.0001) %MON advcfl_uvel_max              =   3.2101756553350E-02
(PID.TID 0000.0001) %MON advcfl_vvel_max              =   2.0126861354443E-02
(PID.TID 0000.0001) %MON advcfl_wvel_max              =   1.9972943414479E-01
(PID.TID 0000.0001) %MON advcfl_W_hf_max              =   1.5676677662278E-01
(PID.TID 0000.0001) %MON pe_b_mean                    =   1.9986354588380E-04
(PID.TID 0000.0001) %MON ke_max                       =   1.8907653483074E-02
(PID.TID 0000.0001) %MON ke_mean                      =   2.7675313059210E-04
(PID.TID 0000.0001) %MON ke_vol                       =   1.3226782436723E+18
(PID.TID 0000.0001) %MON vort_r_min                   =  -8.1591073118378E-07
(PID.TID 0000.0001) %MON vort_r_max                   =   6.5382081952274E-07
(PID.TID 0000.0001) %MON vort_a_mean                  =  -2.5205769175050E-05
(PID.TID 0000.0001) %MON vort_a_sd                    =   7.3402773994437E-05
(PID.TID 0000.0001) %MON vort_p_mean                  =  -3.1758669282304E-05
(PID.TID 0000.0001) %MON vort_p_sd                    =   1.3126269577763E-04
(PID.TID 0000.0001) %MON surfExpan_theta_mean         =   8.6461009727898E-06
(PID.TID 0000.0001) %MON surfExpan_salt_mean          =   1.7416881031018E-06
(PID.TID 0000.0001) // =======================================================
(PID.TID 0000.0001) // End MONITOR dynamic field statistics
(PID.TID 0000.0001) // =======================================================
time,SST,SSS,fu,fv,Q,E-P,i0,i1,a,b =   1.6848E+06  7.3488E-01  3.4671E+01 -3.2453E-02 -5.1313E-02  2.6198E+02  0.0000E+00     1     2  1.5000E-01  8.5000E-01
time,fu0,fu1,fu =   1.6848E+06 -3.5633E-02 -1.4435E-02 -3.2453E-02  1.5000E-01  8.5000E-01
 cg2d: Sum(rhs),rhsMax =   1.80661041682129E-13  9.23489492049614E+00
(PID.TID 0000.0001)                    cg2d_init_res =    6.30132596988535E-01
(PID.TID 0000.0001)                       cg2d_iters =    25
(PID.TID 0000.0001)                         cg2d_res =    4.13422161226356E-14
(PID.TID 0000.0001) // =======================================================
(PID.TID 0000.0001) // Begin MONITOR dynamic field statistics
(PID.TID 0000.0001) // =======================================================
(PID.TID 0000.0001) %MON time_tsnumber                =                    40
(PID.TID 0000.0001) %MON time_secondsf                =   1.7280000000000E+06
(PID.TID 0000.0001) %MON dynstat_eta_max              =   1.0285674401344E+00
(PID.TID 0000.0001) %MON dynstat_eta_min              =  -1.0642123972466E+00
(PID.TID 0000.0001) %MON dynstat_eta_mean             =  -1.6588058715290E-16
(PID.TID 0000.0001) %MON dynstat_eta_sd               =   3.9788881386681E-01
(PID.TID 0000.0001) %MON dynstat_eta_del2             =   1.8737131700618E-02
(PID.TID 0000.0001) %MON dynstat_uvel_max             =   2.0700200132191E-01
(PID.TID 0000.0001) %MON dynstat_uvel_min             =  -1.9766003709511E-01
(PID.TID 0000.0001) %MON dynstat_uvel_mean            =  -2.9081831648528E-03
(PID.TID 0000.0001) %MON dynstat_uvel_sd              =   1.7857869607752E-02
(PID.TID 0000.0001) %MON dynstat_uvel_del2            =   5.7449132926169E-03
(PID.TID 0000.0001) %MON dynstat_vvel_max             =   2.0604219310277E-01
(PID.TID 0000.0001) %MON dynstat_vvel_min             =  -1.5321185059102E-01
(PID.TID 0000.0001) %MON dynstat_vvel_mean            =   3.5981989137551E-03
(PID.TID 0000.0001) %MON dynstat_vvel_sd              =   1.6018284262214E-02
(PID.TID 0000.0001) %MON dynstat_vvel_del2            =   5.2042791389531E-03
(PID.TID 0000.0001) %MON dynstat_wvel_max             =   2.6205599226057E-04
(PID.TID 0000.0001) %MON dynstat_wvel_min             =  -3.0675995458623E-04
(PID.TID 0000.0001) %MON dynstat_wvel_mean            =   3.5245850073675E-22
(PID.TID 0000.0001) %MON dynstat_wvel_sd              =   3.0889150936977E-05
(PID.TID 0000.0001) %MON dynstat_wvel_del2            =   1.2441290566340E-05
(PID.TID 0000.0001) %MON dynstat_theta_max            =   2.9568149530953E+01
(PID.TID 0000.0001) %MON dynstat_theta_min            =  -1.9463463845573E+00
(PID.TID 0000.0001) %MON dynstat_theta_mean           =   3.5939248304538E+00
(PID.TID 0000.0001) %MON dynstat_theta_sd             =   4.3478810922911E+00
(PID.TID 0000.0001) %MON dynstat_theta_del2           =   1.3351979978730E-01
(PID.TID 0000.0001) %MON dynstat_salt_max             =   3.7398461415302E+01
(PID.TID 0000.0001) %MON dynstat_salt_min             =   2.9806065622264E+01
(PID.TID 0000.0001) %MON dynstat_salt_mean            =   3.4716293242537E+01
(PID.TID 0000.0001) %MON dynstat_salt_sd              =   2.9407976786929E-01
(PID.TID 0000.0001) %MON dynstat_salt_del2            =   2.4912457276091E-02
(PID.TID 0000.0001) %MON advcfl_uvel_max              =   3.1770681799186E-02
(PID.TID 0000.0001) %MON advcfl_vvel_max              =   2.0015346800190E-02
(PID.TID 0000.0001) %MON advcfl_wvel_max              =   1.7893358298682E-01
(PID.TID 0000.0001) %MON advcfl_W_hf_max              =   1.6059435296236E-01
(PID.TID 0000.0001) %MON pe_b_mean                    =   2.0258377495870E-04
(PID.TID 0000.0001) %MON ke_max                       =   1.8285186958743E-02
(PID.TID 0000.0001) %MON ke_mean                      =   2.6973001304698E-04
(PID.TID 0000.0001) %MON ke_vol                       =   1.3226782436723E+18
(PID.TID 0000.0001) %MON vort_r_min                   =  -8.2291933562781E-07
(PID.TID 0000.0001) %MON vort_r_max                   =   6.6036355396374E-07
(PID.TID 0000.0001) %MON vort_a_mean                  =  -2.5205769143016E-05
(PID.TID 0000.0001) %MON vort_a_sd                    =   7.3402799672966E-05
(PID.TID 0000.0001) %MON vort_p_mean                  =  -3.1758669241943E-05
(PID.TID 0000.0001) %MON vort_p_sd                    =   1.3126277518396E-04
(PID.TID 0000.0001) %MON surfExpan_theta_mean         =   1.0006317599078E-05
(PID.TID 0000.0001) %MON surfExpan_salt_mean          =   1.9166327591277E-06
(PID.TID 0000.0001) // =======================================================
(PID.TID 0000.0001) // End MONITOR dynamic field statistics
(PID.TID 0000.0001) // =======================================================
time,SST,SSS,fu,fv,Q,E-P,i0,i1,a,b =   1.7280E+06  7.1005E-01  3.4666E+01 -3.2100E-02 -5.0653E-02  2.6156E+02  0.0000E+00     1     2  1.6667E-01  8.3333E-01
time,fu0,fu1,fu =   1.7280E+06 -3.5633E-02 -1.4435E-02 -3.2100E-02  1.6667E-01  8.3333E-01
 cg2d: Sum(rhs),rhsMax =   1.53169144034848E-13  8.72916007721321E+00
(PID.TID 0000.0001)                    cg2d_init_res =    6.59061056986308E-01
(PID.TID 0000.0001)                       cg2d_iters =    25
(PID.TID 0000.0001)                         cg2d_res =    4.22749866132993E-14
(PID.TID 0000.0001) // =======================================================
(PID.TID 0000.0001) // Begin MONITOR dynamic field statistics
(PID.TID 0000.0001) // =======================================================
(PID.TID 0000.0001) %MON time_tsnumber                =                    41
(PID.TID 0000.0001) %MON time_secondsf                =   1.7712000000000E+06
(PID.TID 0000.0001) %MON dynstat_eta_max              =   9.7157021761519E-01
(PID.TID 0000.0001) %MON dynstat_eta_min              =  -1.0802092997926E+00
(PID.TID 0000.0001) %MON dynstat_eta_mean             =   2.1132596967419E-16
(PID.TID 0000.0001) %MON dynstat_eta_sd               =   4.0041083059550E-01
(PID.TID 0000.0001) %MON dynstat_eta_del2             =   1.8808391123933E-02
(PID.TID 0000.0001) %MON dynstat_uvel_max             =   1.9960909289575E-01
(PID.TID 0000.0001) %MON dynstat_uvel_min             =  -2.0871085213531E-01
(PID.TID 0000.0001) %MON dynstat_uvel_mean            =  -2.8390557310665E-03
(PID.TID 0000.0001) %MON dynstat_uvel_sd              =   1.7626863961145E-02
(PID.TID 0000.0001) %MON dynstat_uvel_del2            =   5.7336711489270E-03
(PID.TID 0000.0001) %MON dynstat_vvel_max             =   2.0293250160084E-01
(PID.TID 0000.0001) %MON dynstat_vvel_min             =  -1.5273613253880E-01
(PID.TID 0000.0001) %MON dynstat_vvel_mean            =   3.4481027119273E-03
(PID.TID 0000.0001) %MON dynstat_vvel_sd              =   1.5856396086147E-02
(PID.TID 0000.0001) %MON dynstat_vvel_del2            =   5.1931322441311E-03
(PID.TID 0000.0001) %MON dynstat_wvel_max             =   2.6970433627399E-04
(PID.TID 0000.0001) %MON dynstat_wvel_min             =  -2.9485409051808E-04
(PID.TID 0000.0001) %MON dynstat_wvel_mean            =  -7.4187374888008E-22
(PID.TID 0000.0001) %MON dynstat_wvel_sd              =   3.0762414471881E-05
(PID.TID 0000.0001) %MON dynstat_wvel_del2            =   1.2436684013760E-05
(PID.TID 0000.0001) %MON dynstat_theta_max            =   2.9571084085325E+01
(PID.TID 0000.0001) %MON dynstat_theta_min            =  -1.9457008204569E+00
(PID.TID 0000.0001) %MON dynstat_theta_mean           =   3.5938394484093E+00
(PID.TID 0000.0001) %MON dynstat_theta_sd             =   4.3479098726012E+00
(PID.TID 0000.0001) %MON dynstat_theta_del2           =   1.3341440162603E-01
(PID.TID 0000.0001) %MON dynstat_salt_max             =   3.7396296594562E+01
(PID.TID 0000.0001) %MON dynstat_salt_min             =   2.9806153482791E+01
(PID.TID 0000.0001) %MON dynstat_salt_mean            =   3.4716269785987E+01
(PID.TID 0000.0001) %MON dynstat_salt_sd              =   2.9401242784622E-01
(PID.TID 0000.0001) %MON dynstat_salt_del2            =   2.4874633759489E-02
(PID.TID 0000.0001) %MON advcfl_uvel_max              =   3.1442827179116E-02
(PID.TID 0000.0001) %MON advcfl_vvel_max              =   1.9713265207505E-02
(PID.TID 0000.0001) %MON advcfl_wvel_max              =   1.8629058262087E-01
(PID.TID 0000.0001) %MON advcfl_W_hf_max              =   1.6002804887174E-01
(PID.TID 0000.0001) %MON pe_b_mean                    =   2.0516006704197E-04
(PID.TID 0000.0001) %MON ke_max                       =   1.8302378432656E-02
(PID.TID 0000.0001) %MON ke_mean                      =   2.6303399352960E-04
(PID.TID 0000.0001) %MON ke_vol                       =   1.3226782436723E+18
(PID.TID 0000.0001) %MON vort_r_min                   =  -8.2866356375028E-07
(PID.TID 0000.0001) %MON vort_r_max                   =   6.6634668406074E-07
(PID.TID 0000.0001) %MON vort_a_mean                  =  -2.5205769106052E-05
(PID.TID 0000.0001) %MON vort_a_sd                    =   7.3402821463507E-05
(PID.TID 0000.0001) %MON vort_p_mean                  =  -3.1758669195368E-05
(PID.TID 0000.0001) %MON vort_p_sd                    =   1.3126284648369E-04
(PID.TID 0000.0001) %MON surfExpan_theta_mean         =   1.1087287190225E-05
(PID.TID 0000.0001) %MON surfExpan_salt_mean          =   2.0081151507847E-06
(PID.TID 0000.0001) // =======================================================
(PID.TID 0000.0001) // End MONITOR dynamic field statistics
(PID.TID 0000.0001) // =======================================================
time,SST,SSS,fu,fv,Q,E-P,i0,i1,a,b =   1.7712E+06  6.8521E-01  3.4661E+01 -3.1747E-02 -4.9993E-02  2.6113E+02  0.0000E+00     1     2  1.8333E-01  8.1667E-01
time,fu0,fu1,fu =   1.7712E+06 -3.5633E-02 -1.4435E-02 -3.1747E-02  1.8333E-01  8.1667E-01
 cg2d: Sum(rhs),rhsMax =  -4.14529521819418E-13  8.14764856015177E+00
(PID.TID 0000.0001)                    cg2d_init_res =    7.01965806929890E-01
(PID.TID 0000.0001)                       cg2d_iters =    25
(PID.TID 0000.0001)                         cg2d_res =    4.30791753245448E-14
(PID.TID 0000.0001) // =======================================================
(PID.TID 0000.0001) // Begin MONITOR dynamic field statistics
(PID.TID 0000.0001) // =======================================================
(PID.TID 0000.0001) %MON time_tsnumber                =                    42
(PID.TID 0000.0001) %MON time_secondsf                =   1.8144000000000E+06
(PID.TID 0000.0001) %MON dynstat_eta_max              =   9.0613949507704E-01
(PID.TID 0000.0001) %MON dynstat_eta_min              =  -1.0864506266815E+00
(PID.TID 0000.0001) %MON dynstat_eta_mean             =   1.4331746972028E-16
(PID.TID 0000.0001) %MON dynstat_eta_sd               =   4.0272823209922E-01
(PID.TID 0000.0001) %MON dynstat_eta_del2             =   1.8931137853237E-02
(PID.TID 0000.0001) %MON dynstat_uvel_max             =   1.9213235223159E-01
(PID.TID 0000.0001) %MON dynstat_uvel_min             =  -2.1685311243584E-01
(PID.TID 0000.0001) %MON dynstat_uvel_mean            =  -2.7786627975284E-03
(PID.TID 0000.0001) %MON dynstat_uvel_sd              =   1.7428044427481E-02
(PID.TID 0000.0001) %MON dynstat_uvel_del2            =   5.7156342775849E-03
(PID.TID 0000.0001) %MON dynstat_vvel_max             =   1.9793625393276E-01
(PID.TID 0000.0001) %MON dynstat_vvel_min             =  -1.5372757289353E-01
(PID.TID 0000.0001) %MON dynstat_vvel_mean            =   3.2628792199295E-03
(PID.TID 0000.0001) %MON dynstat_vvel_sd              =   1.5685212188047E-02
(PID.TID 0000.0001) %MON dynstat_vvel_del2            =   5.1820446189627E-03
(PID.TID 0000.0001) %MON dynstat_wvel_max             =   2.7663209578678E-04
(PID.TID 0000.0001) %MON dynstat_wvel_min             =  -2.8302405789428E-04
(PID.TID 0000.0001) %MON dynstat_wvel_mean            =  -1.0032447673938E-22
(PID.TID 0000.0001) %MON dynstat_wvel_sd              =   3.0621861953682E-05
(PID.TID 0000.0001) %MON dynstat_wvel_del2            =   1.2420626291893E-05
(PID.TID 0000.0001) %MON dynstat_theta_max            =   2.9581255587328E+01
(PID.TID 0000.0001) %MON dynstat_theta_min            =  -1.9448925468353E+00
(PID.TID 0000.0001) %MON dynstat_theta_mean           =   3.5937471617618E+00
(PID.TID 0000.0001) %MON dynstat_theta_sd             =   4.3478443305118E+00
(PID.TID 0000.0001) %MON dynstat_theta_del2           =   1.3331727481209E-01
(PID.TID 0000.0001) %MON dynstat_salt_max             =   3.7393988125026E+01
(PID.TID 0000.0001) %MON dynstat_salt_min             =   2.9806147010772E+01
(PID.TID 0000.0001) %MON dynstat_salt_mean            =   3.4716246820231E+01
(PID.TID 0000.0001) %MON dynstat_salt_sd              =   2.9394725497650E-01
(PID.TID 0000.0001) %MON dynstat_salt_del2            =   2.4841384144430E-02
(PID.TID 0000.0001) %MON advcfl_uvel_max              =   3.1126330682905E-02
(PID.TID 0000.0001) %MON advcfl_vvel_max              =   1.9227919811641E-02
(PID.TID 0000.0001) %MON advcfl_wvel_max              =   1.8859175537477E-01
(PID.TID 0000.0001) %MON advcfl_W_hf_max              =   1.5496855601132E-01
(PID.TID 0000.0001) %MON pe_b_mean                    =   2.0754169123895E-04
(PID.TID 0000.0001) %MON ke_max                       =   1.8267160322600E-02
(PID.TID 0000.0001) %MON ke_mean                      =   2.5673137716271E-04
(PID.TID 0000.0001) %MON ke_vol                       =   1.3226782436723E+18
(PID.TID 0000.0001) %MON vort_r_min                   =  -8.3285024784719E-07
(PID.TID 0000.0001) %MON vort_r_max                   =   6.7130206104811E-07
(PID.TID 0000.0001) %MON vort_a_mean                  =  -2.5205769065685E-05
(PID.TID 0000.0001) %MON vort_a_sd                    =   7.3402840267940E-05
(PID.TID 0000.0001) %MON vort_p_mean                  =  -3.1758669144507E-05
(PID.TID 0000.0001) %MON vort_p_sd                    =   1.3126291076811E-04
(PID.TID 0000.0001) %MON surfExpan_theta_mean         =   1.1881363334669E-05
(PID.TID 0000.0001) %MON surfExpan_salt_mean          =   2.0177233284676E-06
(PID.TID 0000.0001) // =======================================================
(PID.TID 0000.0001) // End MONITOR dynamic field statistics
(PID.TID 0000.0001) // =======================================================
time,SST,SSS,fu,fv,Q,E-P,i0,i1,a,b =   1.8144E+06  6.6037E-01  3.4656E+01 -3.1393E-02 -4.9332E-02  2.6071E+02  0.0000E+00     1     2  2.0000E-01  8.0000E-01
time,fu0,fu1,fu =   1.8144E+06 -3.5633E-02 -1.4435E-02 -3.1393E-02  2.0000E-01  8.0000E-01
 cg2d: Sum(rhs),rhsMax =  -2.12177497793675E-13  7.68469225955821E+00
(PID.TID 0000.0001)                    cg2d_init_res =    7.41331562507628E-01
(PID.TID 0000.0001)                       cg2d_iters =    25
(PID.TID 0000.0001)                         cg2d_res =    4.26677770559578E-14
(PID.TID 0000.0001) // =======================================================
(PID.TID 0000.0001) // Begin MONITOR dynamic field statistics
(PID.TID 0000.0001) // =======================================================
(PID.TID 0000.0001) %MON time_tsnumber                =                    43
(PID.TID 0000.0001) %MON time_secondsf                =   1.8576000000000E+06
(PID.TID 0000.0001) %MON dynstat_eta_max              =   8.3355386955785E-01
(PID.TID 0000.0001) %MON dynstat_eta_min              =  -1.1081347419861E+00
(PID.TID 0000.0001) %MON dynstat_eta_mean             =  -2.6728059293060E-16
(PID.TID 0000.0001) %MON dynstat_eta_sd               =   4.0481492951487E-01
(PID.TID 0000.0001) %MON dynstat_eta_del2             =   1.9057923108124E-02
(PID.TID 0000.0001) %MON dynstat_uvel_max             =   1.8116953095388E-01
(PID.TID 0000.0001) %MON dynstat_uvel_min             =  -2.2182694994655E-01
(PID.TID 0000.0001) %MON dynstat_uvel_mean            =  -2.7224006948116E-03
(PID.TID 0000.0001) %MON dynstat_uvel_sd              =   1.7260602064778E-02
(PID.TID 0000.0001) %MON dynstat_uvel_del2            =   5.6914371157371E-03
(PID.TID 0000.0001) %MON dynstat_vvel_max             =   1.9116249267616E-01
(PID.TID 0000.0001) %MON dynstat_vvel_min             =  -1.5403098085165E-01
(PID.TID 0000.0001) %MON dynstat_vvel_mean            =   3.0456057549480E-03
(PID.TID 0000.0001) %MON dynstat_vvel_sd              =   1.5509448828968E-02
(PID.TID 0000.0001) %MON dynstat_vvel_del2            =   5.1714806795366E-03
(PID.TID 0000.0001) %MON dynstat_wvel_max             =   2.8286999969665E-04
(PID.TID 0000.0001) %MON dynstat_wvel_min             =  -2.7144057938066E-04
(PID.TID 0000.0001) %MON dynstat_wvel_mean            =  -2.4049934826251E-22
(PID.TID 0000.0001) %MON dynstat_wvel_sd              =   3.0460067687957E-05
(PID.TID 0000.0001) %MON dynstat_wvel_del2            =   1.2390753298124E-05
(PID.TID 0000.0001) %MON dynstat_theta_max            =   2.9591806143329E+01
(PID.TID 0000.0001) %MON dynstat_theta_min            =  -1.9439601872608E+00
(PID.TID 0000.0001) %MON dynstat_theta_mean           =   3.5936509398210E+00
(PID.TID 0000.0001) %MON dynstat_theta_sd             =   4.3476944072541E+00
(PID.TID 0000.0001) %MON dynstat_theta_del2           =   1.3318199566621E-01
(PID.TID 0000.0001) %MON dynstat_salt_max             =   3.7391643341027E+01
(PID.TID 0000.0001) %MON dynstat_salt_min             =   2.9806047480809E+01
(PID.TID 0000.0001) %MON dynstat_salt_mean            =   3.4716225165244E+01
(PID.TID 0000.0001) %MON dynstat_salt_sd              =   2.9388585459657E-01
(PID.TID 0000.0001) %MON dynstat_salt_del2            =   2.4801571039136E-02
(PID.TID 0000.0001) %MON advcfl_uvel_max              =   3.0828093707405E-02
(PID.TID 0000.0001) %MON advcfl_vvel_max              =   1.8569903224596E-02
(PID.TID 0000.0001) %MON advcfl_wvel_max              =   1.8480870979205E-01
(PID.TID 0000.0001) %MON advcfl_W_hf_max              =   1.4555345123557E-01
(PID.TID 0000.0001) %MON pe_b_mean                    =   2.0969797753180E-04
(PID.TID 0000.0001) %MON ke_max                       =   1.8407427124884E-02
(PID.TID 0000.0001) %MON ke_mean                      =   2.5087508845657E-04
(PID.TID 0000.0001) %MON ke_vol                       =   1.3226782436723E+18
(PID.TID 0000.0001) %MON vort_r_min                   =  -8.3785623568032E-07
(PID.TID 0000.0001) %MON vort_r_max                   =   6.7477700917005E-07
(PID.TID 0000.0001) %MON vort_a_mean                  =  -2.5205769023347E-05
(PID.TID 0000.0001) %MON vort_a_sd                    =   7.3402856973446E-05
(PID.TID 0000.0001) %MON vort_p_mean                  =  -3.1758669091163E-05
(PID.TID 0000.0001) %MON vort_p_sd                    =   1.3126296905719E-04
(PID.TID 0000.0001) %MON surfExpan_theta_mean         =   1.2399362578693E-05
(PID.TID 0000.0001) %MON surfExpan_salt_mean          =   1.9506645311726E-06
(PID.TID 0000.0001) // =======================================================
(PID.TID 0000.0001) // End MONITOR dynamic field statistics
(PID.TID 0000.0001) // =======================================================
time,SST,SSS,fu,fv,Q,E-P,i0,i1,a,b =   1.8576E+06  6.3553E-01  3.4651E+01 -3.1040E-02 -4.8672E-02  2.6029E+02  0.0000E+00     1     2  2.1667E-01  7.8333E-01
time,fu0,fu1,fu =   1.8576E+06 -3.5633E-02 -1.4435E-02 -3.1040E-02  2.1667E-01  7.8333E-01
 cg2d: Sum(rhs),rhsMax =   2.09568473685806E-13  7.71510905938529E+00
(PID.TID 0000.0001)                    cg2d_init_res =    7.34299243871186E-01
(PID.TID 0000.0001)                       cg2d_iters =    25
(PID.TID 0000.0001)                         cg2d_res =    3.89604571362963E-14
(PID.TID 0000.0001) // =======================================================
(PID.TID 0000.0001) // Begin MONITOR dynamic field statistics
(PID.TID 0000.0001) // =======================================================
(PID.TID 0000.0001) %MON time_tsnumber                =                    44
(PID.TID 0000.0001) %MON time_secondsf                =   1.9008000000000E+06
(PID.TID 0000.0001) %MON dynstat_eta_max              =   8.9426613522337E-01
(PID.TID 0000.0001) %MON dynstat_eta_min              =  -1.1294867738848E+00
(PID.TID 0000.0001) %MON dynstat_eta_mean             =   7.9694748815038E-17
(PID.TID 0000.0001) %MON dynstat_eta_sd               =   4.0665849714136E-01
(PID.TID 0000.0001) %MON dynstat_eta_del2             =   1.9164929268359E-02
(PID.TID 0000.0001) %MON dynstat_uvel_max             =   1.6697025756741E-01
(PID.TID 0000.0001) %MON dynstat_uvel_min             =  -2.2350758088760E-01
(PID.TID 0000.0001) %MON dynstat_uvel_mean            =  -2.6661725160418E-03
(PID.TID 0000.0001) %MON dynstat_uvel_sd              =   1.7122401960367E-02
(PID.TID 0000.0001) %MON dynstat_uvel_del2            =   5.6632057316670E-03
(PID.TID 0000.0001) %MON dynstat_vvel_max             =   1.8369155754443E-01
(PID.TID 0000.0001) %MON dynstat_vvel_min             =  -1.5364506471142E-01
(PID.TID 0000.0001) %MON dynstat_vvel_mean            =   2.7998960974514E-03
(PID.TID 0000.0001) %MON dynstat_vvel_sd              =   1.5334539819798E-02
(PID.TID 0000.0001) %MON dynstat_vvel_del2            =   5.1603284006162E-03
(PID.TID 0000.0001) %MON dynstat_wvel_max             =   2.8844918573359E-04
(PID.TID 0000.0001) %MON dynstat_wvel_min             =  -2.6024369944437E-04
(PID.TID 0000.0001) %MON dynstat_wvel_mean            =  -1.8215932970758E-22
(PID.TID 0000.0001) %MON dynstat_wvel_sd              =   3.0271514558509E-05
(PID.TID 0000.0001) %MON dynstat_wvel_del2            =   1.2348495808606E-05
(PID.TID 0000.0001) %MON dynstat_theta_max            =   2.9606631764862E+01
(PID.TID 0000.0001) %MON dynstat_theta_min            =  -1.9430441349498E+00
(PID.TID 0000.0001) %MON dynstat_theta_mean           =   3.5935535142835E+00
(PID.TID 0000.0001) %MON dynstat_theta_sd             =   4.3474705458345E+00
(PID.TID 0000.0001) %MON dynstat_theta_del2           =   1.3304862625456E-01
(PID.TID 0000.0001) %MON dynstat_salt_max             =   3.7389300454293E+01
(PID.TID 0000.0001) %MON dynstat_salt_min             =   2.9805858536414E+01
(PID.TID 0000.0001) %MON dynstat_salt_mean            =   3.4716205533706E+01
(PID.TID 0000.0001) %MON dynstat_salt_sd              =   2.9382881346589E-01
(PID.TID 0000.0001) %MON dynstat_salt_del2            =   2.4761130217913E-02
(PID.TID 0000.0001) %MON advcfl_uvel_max              =   3.0553749180583E-02
(PID.TID 0000.0001) %MON advcfl_vvel_max              =   1.7844161786246E-02
(PID.TID 0000.0001) %MON advcfl_wvel_max              =   1.7525683192084E-01
(PID.TID 0000.0001) %MON advcfl_W_hf_max              =   1.3805885673627E-01
(PID.TID 0000.0001) %MON pe_b_mean                    =   2.1161229770468E-04
(PID.TID 0000.0001) %MON ke_max                       =   1.8575046712577E-02
(PID.TID 0000.0001) %MON ke_mean                      =   2.4551183100055E-04
(PID.TID 0000.0001) %MON ke_vol                       =   1.3226782436723E+18
(PID.TID 0000.0001) %MON vort_r_min                   =  -8.6003589695700E-07
(PID.TID 0000.0001) %MON vort_r_max                   =   6.7634722291879E-07
(PID.TID 0000.0001) %MON vort_a_mean                  =  -2.5205768980248E-05
(PID.TID 0000.0001) %MON vort_a_sd                    =   7.3402872418113E-05
(PID.TID 0000.0001) %MON vort_p_mean                  =  -3.1758669036859E-05
(PID.TID 0000.0001) %MON vort_p_sd                    =   1.3126302225653E-04
(PID.TID 0000.0001) %MON surfExpan_theta_mean         =   1.2664587583304E-05
(PID.TID 0000.0001) %MON surfExpan_salt_mean          =   1.8150393128932E-06
(PID.TID 0000.0001) // =======================================================
(PID.TID 0000.0001) // End MONITOR dynamic field statistics
(PID.TID 0000.0001) // =======================================================
time,SST,SSS,fu,fv,Q,E-P,i0,i1,a,b =   1.9008E+06  6.1069E-01  3.4646E+01 -3.0687E-02 -4.8012E-02  2.5987E+02  0.0000E+00     1     2  2.3333E-01  7.6667E-01
time,fu0,fu1,fu =   1.9008E+06 -3.5633E-02 -1.4435E-02 -3.0687E-02  2.3333E-01  7.6667E-01
 cg2d: Sum(rhs),rhsMax =  -3.17135206984176E-13  7.94458113728275E+00
(PID.TID 0000.0001)                    cg2d_init_res =    7.06079130211616E-01
(PID.TID 0000.0001)                       cg2d_iters =    25
(PID.TID 0000.0001)                         cg2d_res =    3.40411752660337E-14
(PID.TID 0000.0001) // =======================================================
(PID.TID 0000.0001) // Begin MONITOR dynamic field statistics
(PID.TID 0000.0001) // =======================================================
(PID.TID 0000.0001) %MON time_tsnumber                =                    45
(PID.TID 0000.0001) %MON time_secondsf                =   1.9440000000000E+06
(PID.TID 0000.0001) %MON dynstat_eta_max              =   9.6110825913864E-01
(PID.TID 0000.0001) %MON dynstat_eta_min              =  -1.1438712905130E+00
(PID.TID 0000.0001) %MON dynstat_eta_mean             =   4.5042692663254E-17
(PID.TID 0000.0001) %MON dynstat_eta_sd               =   4.0825440348015E-01
(PID.TID 0000.0001) %MON dynstat_eta_del2             =   1.9223591721776E-02
(PID.TID 0000.0001) %MON dynstat_uvel_max             =   1.4986118952159E-01
(PID.TID 0000.0001) %MON dynstat_uvel_min             =  -2.2190073600083E-01
(PID.TID 0000.0001) %MON dynstat_uvel_mean            =  -2.6064974913432E-03
(PID.TID 0000.0001) %MON dynstat_uvel_sd              =   1.7010500327956E-02
(PID.TID 0000.0001) %MON dynstat_uvel_del2            =   5.6305599107450E-03
(PID.TID 0000.0001) %MON dynstat_vvel_max             =   1.7501479391699E-01
(PID.TID 0000.0001) %MON dynstat_vvel_min             =  -1.5257497899386E-01
(PID.TID 0000.0001) %MON dynstat_vvel_mean            =   2.5297672286354E-03
(PID.TID 0000.0001) %MON dynstat_vvel_sd              =   1.5166624455114E-02
(PID.TID 0000.0001) %MON dynstat_vvel_del2            =   5.1482190368489E-03
(PID.TID 0000.0001) %MON dynstat_wvel_max             =   2.9339932255308E-04
(PID.TID 0000.0001) %MON dynstat_wvel_min             =  -2.4954384857620E-04
(PID.TID 0000.0001) %MON dynstat_wvel_mean            =  -6.6988246452169E-23
(PID.TID 0000.0001) %MON dynstat_wvel_sd              =   3.0053920461265E-05
(PID.TID 0000.0001) %MON dynstat_wvel_del2            =   1.2289107726055E-05
(PID.TID 0000.0001) %MON dynstat_theta_max            =   2.9620324185728E+01
(PID.TID 0000.0001) %MON dynstat_theta_min            =  -1.9423409107792E+00
(PID.TID 0000.0001) %MON dynstat_theta_mean           =   3.5934571665426E+00
(PID.TID 0000.0001) %MON dynstat_theta_sd             =   4.3471850102459E+00
(PID.TID 0000.0001) %MON dynstat_theta_del2           =   1.3293967876567E-01
(PID.TID 0000.0001) %MON dynstat_salt_max             =   3.7386927885664E+01
(PID.TID 0000.0001) %MON dynstat_salt_min             =   2.9805585665262E+01
(PID.TID 0000.0001) %MON dynstat_salt_mean            =   3.4716188501699E+01
(PID.TID 0000.0001) %MON dynstat_salt_sd              =   2.9377705104201E-01
(PID.TID 0000.0001) %MON dynstat_salt_del2            =   2.4728553526730E-02
(PID.TID 0000.0001) %MON advcfl_uvel_max              =   3.0307693483175E-02
(PID.TID 0000.0001) %MON advcfl_vvel_max              =   1.7001283779119E-02
(PID.TID 0000.0001) %MON advcfl_wvel_max              =   1.6044263732048E-01
(PID.TID 0000.0001) %MON advcfl_W_hf_max              =   1.2653242071424E-01
(PID.TID 0000.0001) %MON pe_b_mean                    =   2.1327647576776E-04
(PID.TID 0000.0001) %MON ke_max                       =   1.8718020344245E-02
(PID.TID 0000.0001) %MON ke_mean                      =   2.4068795336534E-04
(PID.TID 0000.0001) %MON ke_vol                       =   1.3226782436723E+18
(PID.TID 0000.0001) %MON vort_r_min                   =  -8.8170187425575E-07
(PID.TID 0000.0001) %MON vort_r_max                   =   6.7562802968428E-07
(PID.TID 0000.0001) %MON vort_a_mean                  =  -2.5205768937772E-05
(PID.TID 0000.0001) %MON vort_a_sd                    =   7.3402887357039E-05
(PID.TID 0000.0001) %MON vort_p_mean                  =  -3.1758668983340E-05
(PID.TID 0000.0001) %MON vort_p_sd                    =   1.3126307106178E-04
(PID.TID 0000.0001) %MON surfExpan_theta_mean         =   1.2709318270845E-05
(PID.TID 0000.0001) %MON surfExpan_salt_mean          =   1.6215737435045E-06
(PID.TID 0000.0001) // =======================================================
(PID.TID 0000.0001) // End MONITOR dynamic field statistics
(PID.TID 0000.0001) // =======================================================
time,SST,SSS,fu,fv,Q,E-P,i0,i1,a,b =   1.9440E+06  5.8585E-01  3.4641E+01 -3.0333E-02 -4.7351E-02  2.5945E+02  0.0000E+00     1     2  2.5000E-01  7.5000E-01
time,fu0,fu1,fu =   1.9440E+06 -3.5633E-02 -1.4435E-02 -3.0333E-02  2.5000E-01  7.5000E-01
 cg2d: Sum(rhs),rhsMax =   1.56860635591727E-13  8.35758901364265E+00
(PID.TID 0000.0001)                    cg2d_init_res =    6.60858958890503E-01
(PID.TID 0000.0001)                       cg2d_iters =    25
(PID.TID 0000.0001)                         cg2d_res =    2.85049886676905E-14
(PID.TID 0000.0001) // =======================================================
(PID.TID 0000.0001) // Begin MONITOR dynamic field statistics
(PID.TID 0000.0001) // =======================================================
(PID.TID 0000.0001) %MON time_tsnumber                =                    46
(PID.TID 0000.0001) %MON time_secondsf                =   1.9872000000000E+06
(PID.TID 0000.0001) %MON dynstat_eta_max              =   1.0102916766326E+00
(PID.TID 0000.0001) %MON dynstat_eta_min              =  -1.1578391341883E+00
(PID.TID 0000.0001) %MON dynstat_eta_mean             =  -1.0422083161603E-16
(PID.TID 0000.0001) %MON dynstat_eta_sd               =   4.0960226815629E-01
(PID.TID 0000.0001) %MON dynstat_eta_del2             =   1.9276143268908E-02
(PID.TID 0000.0001) %MON dynstat_uvel_max             =   1.4410834194430E-01
(PID.TID 0000.0001) %MON dynstat_uvel_min             =  -2.1713288513133E-01
(PID.TID 0000.0001) %MON dynstat_uvel_mean            =  -2.5405789362975E-03
(PID.TID 0000.0001) %MON dynstat_uvel_sd              =   1.6921667017537E-02
(PID.TID 0000.0001) %MON dynstat_uvel_del2            =   5.5959994657564E-03
(PID.TID 0000.0001) %MON dynstat_vvel_max             =   1.7550481146278E-01
(PID.TID 0000.0001) %MON dynstat_vvel_min             =  -1.5083210991398E-01
(PID.TID 0000.0001) %MON dynstat_vvel_mean            =   2.2395099091284E-03
(PID.TID 0000.0001) %MON dynstat_vvel_sd              =   1.5012316506547E-02
(PID.TID 0000.0001) %MON dynstat_vvel_del2            =   5.1361372068404E-03
(PID.TID 0000.0001) %MON dynstat_wvel_max             =   2.9774759133217E-04
(PID.TID 0000.0001) %MON dynstat_wvel_min             =  -2.3942389395645E-04
(PID.TID 0000.0001) %MON dynstat_wvel_mean            =   5.7055226083055E-23
(PID.TID 0000.0001) %MON dynstat_wvel_sd              =   2.9809052815713E-05
(PID.TID 0000.0001) %MON dynstat_wvel_del2            =   1.2218096316797E-05
(PID.TID 0000.0001) %MON dynstat_theta_max            =   2.9632693664324E+01
(PID.TID 0000.0001) %MON dynstat_theta_min            =  -1.9410856516330E+00
(PID.TID 0000.0001) %MON dynstat_theta_mean           =   3.5933635742452E+00
(PID.TID 0000.0001) %MON dynstat_theta_sd             =   4.3468527243347E+00
(PID.TID 0000.0001) %MON dynstat_theta_del2           =   1.3282067690114E-01
(PID.TID 0000.0001) %MON dynstat_salt_max             =   3.7384525591174E+01
(PID.TID 0000.0001) %MON dynstat_salt_min             =   2.9805235607334E+01
(PID.TID 0000.0001) %MON dynstat_salt_mean            =   3.4716174483550E+01
(PID.TID 0000.0001) %MON dynstat_salt_sd              =   2.9373164647619E-01
(PID.TID 0000.0001) %MON dynstat_salt_del2            =   2.4687483633419E-02
(PID.TID 0000.0001) %MON advcfl_uvel_max              =   3.0093113726129E-02
(PID.TID 0000.0001) %MON advcfl_vvel_max              =   1.7048885054224E-02
(PID.TID 0000.0001) %MON advcfl_wvel_max              =   1.4103775316190E-01
(PID.TID 0000.0001) %MON advcfl_W_hf_max              =   1.3058799582543E-01
(PID.TID 0000.0001) %MON pe_b_mean                    =   2.1468707840913E-04
(PID.TID 0000.0001) %MON ke_max                       =   1.8837121108491E-02
(PID.TID 0000.0001) %MON ke_mean                      =   2.3645221939352E-04
(PID.TID 0000.0001) %MON ke_vol                       =   1.3226782436723E+18
(PID.TID 0000.0001) %MON vort_r_min                   =  -9.0277058424897E-07
(PID.TID 0000.0001) %MON vort_r_max                   =   6.7228493037961E-07
(PID.TID 0000.0001) %MON vort_a_mean                  =  -2.5205768896861E-05
(PID.TID 0000.0001) %MON vort_a_sd                    =   7.3402902445636E-05
(PID.TID 0000.0001) %MON vort_p_mean                  =  -3.1758668931793E-05
(PID.TID 0000.0001) %MON vort_p_sd                    =   1.3126311598165E-04
(PID.TID 0000.0001) %MON surfExpan_theta_mean         =   1.2574839286417E-05
(PID.TID 0000.0001) %MON surfExpan_salt_mean          =   1.3827390447725E-06
(PID.TID 0000.0001) // =======================================================
(PID.TID 0000.0001) // End MONITOR dynamic field statistics
(PID.TID 0000.0001) // =======================================================
time,SST,SSS,fu,fv,Q,E-P,i0,i1,a,b =   1.9872E+06  5.6102E-01  3.4636E+01 -2.9980E-02 -4.6691E-02  2.5903E+02  0.0000E+00     1     2  2.6667E-01  7.3333E-01
time,fu0,fu1,fu =   1.9872E+06 -3.5633E-02 -1.4435E-02 -2.9980E-02  2.6667E-01  7.3333E-01
 cg2d: Sum(rhs),rhsMax =  -5.58192381205913E-13  8.64096095373717E+00
(PID.TID 0000.0001)                    cg2d_init_res =    6.25865030033315E-01
(PID.TID 0000.0001)                       cg2d_iters =    24
(PID.TID 0000.0001)                         cg2d_res =    9.94424802832353E-14
(PID.TID 0000.0001) // =======================================================
(PID.TID 0000.0001) // Begin MONITOR dynamic field statistics
(PID.TID 0000.0001) // =======================================================
(PID.TID 0000.0001) %MON time_tsnumber                =                    47
(PID.TID 0000.0001) %MON time_secondsf                =   2.0304000000000E+06
(PID.TID 0000.0001) %MON dynstat_eta_max              =   1.0510920938461E+00
(PID.TID 0000.0001) %MON dynstat_eta_min              =  -1.1714909825681E+00
(PID.TID 0000.0001) %MON dynstat_eta_mean             =   3.3897364186406E-17
(PID.TID 0000.0001) %MON dynstat_eta_sd               =   4.1070473361403E-01
(PID.TID 0000.0001) %MON dynstat_eta_del2             =   1.9329034856964E-02
(PID.TID 0000.0001) %MON dynstat_uvel_max             =   1.4349283570464E-01
(PID.TID 0000.0001) %MON dynstat_uvel_min             =  -2.0943767527367E-01
(PID.TID 0000.0001) %MON dynstat_uvel_mean            =  -2.4663457274395E-03
(PID.TID 0000.0001) %MON dynstat_uvel_sd              =   1.6852877960710E-02
(PID.TID 0000.0001) %MON dynstat_uvel_del2            =   5.5596522848205E-03
(PID.TID 0000.0001) %MON dynstat_vvel_max             =   1.7553918951083E-01
(PID.TID 0000.0001) %MON dynstat_vvel_min             =  -1.4843494248197E-01
(PID.TID 0000.0001) %MON dynstat_vvel_mean            =   1.9335814139417E-03
(PID.TID 0000.0001) %MON dynstat_vvel_sd              =   1.4878205558410E-02
(PID.TID 0000.0001) %MON dynstat_vvel_del2            =   5.1267117131521E-03
(PID.TID 0000.0001) %MON dynstat_wvel_max             =   3.0151804273820E-04
(PID.TID 0000.0001) %MON dynstat_wvel_min             =  -2.3771513626601E-04
(PID.TID 0000.0001) %MON dynstat_wvel_mean            =  -1.6867508457353E-23
(PID.TID 0000.0001) %MON dynstat_wvel_sd              =   2.9542381086598E-05
(PID.TID 0000.0001) %MON dynstat_wvel_del2            =   1.2135479001757E-05
(PID.TID 0000.0001) %MON dynstat_theta_max            =   2.9643629936603E+01
(PID.TID 0000.0001) %MON dynstat_theta_min            =  -1.9405386873919E+00
(PID.TID 0000.0001) %MON dynstat_theta_mean           =   3.5932740713277E+00
(PID.TID 0000.0001) %MON dynstat_theta_sd             =   4.3464857658418E+00
(PID.TID 0000.0001) %MON dynstat_theta_del2           =   1.3275529556706E-01
(PID.TID 0000.0001) %MON dynstat_salt_max             =   3.7382093444656E+01
(PID.TID 0000.0001) %MON dynstat_salt_min             =   2.9804815737612E+01
(PID.TID 0000.0001) %MON dynstat_salt_mean            =   3.4716163740767E+01
(PID.TID 0000.0001) %MON dynstat_salt_sd              =   2.9369287812753E-01
(PID.TID 0000.0001) %MON dynstat_salt_del2            =   2.4648339263515E-02
(PID.TID 0000.0001) %MON advcfl_uvel_max              =   2.9912116698796E-02
(PID.TID 0000.0001) %MON advcfl_vvel_max              =   1.7052224605914E-02
(PID.TID 0000.0001) %MON advcfl_wvel_max              =   1.3441813621690E-01
(PID.TID 0000.0001) %MON advcfl_W_hf_max              =   1.3454683710356E-01
(PID.TID 0000.0001) %MON pe_b_mean                    =   2.1584431620592E-04
(PID.TID 0000.0001) %MON ke_max                       =   1.8932968018271E-02
(PID.TID 0000.0001) %MON ke_mean                      =   2.3285503140288E-04
(PID.TID 0000.0001) %MON ke_vol                       =   1.3226782436723E+18
(PID.TID 0000.0001) %MON vort_r_min                   =  -9.2315355074451E-07
(PID.TID 0000.0001) %MON vort_r_max                   =   6.6604283744450E-07
(PID.TID 0000.0001) %MON vort_a_mean                  =  -2.5205768858192E-05
(PID.TID 0000.0001) %MON vort_a_sd                    =   7.3402918220447E-05
(PID.TID 0000.0001) %MON vort_p_mean                  =  -3.1758668883071E-05
(PID.TID 0000.0001) %MON vort_p_sd                    =   1.3126315724703E-04
(PID.TID 0000.0001) %MON surfExpan_theta_mean         =   1.2303427269551E-05
(PID.TID 0000.0001) %MON surfExpan_salt_mean          =   1.1122418907242E-06
(PID.TID 0000.0001) // =======================================================
(PID.TID 0000.0001) // End MONITOR dynamic field statistics
(PID.TID 0000.0001) // =======================================================
time,SST,SSS,fu,fv,Q,E-P,i0,i1,a,b =   2.0304E+06  5.3618E-01  3.4631E+01 -2.9627E-02 -4.6031E-02  2.5861E+02  0.0000E+00     1     2  2.8333E-01  7.1667E-01
time,fu0,fu1,fu =   2.0304E+06 -3.5633E-02 -1.4435E-02 -2.9627E-02  2.8333E-01  7.1667E-01
 cg2d: Sum(rhs),rhsMax =  -1.29826704942104E-13  8.90282407332136E+00
(PID.TID 0000.0001)                    cg2d_init_res =    5.92306241302124E-01
(PID.TID 0000.0001)                       cg2d_iters =    24
(PID.TID 0000.0001)                         cg2d_res =    8.09487933534579E-14
(PID.TID 0000.0001) // =======================================================
(PID.TID 0000.0001) // Begin MONITOR dynamic field statistics
(PID.TID 0000.0001) // =======================================================
(PID.TID 0000.0001) %MON time_tsnumber                =                    48
(PID.TID 0000.0001) %MON time_secondsf                =   2.0736000000000E+06
(PID.TID 0000.0001) %MON dynstat_eta_max              =   1.0809486894072E+00
(PID.TID 0000.0001) %MON dynstat_eta_min              =  -1.1761446232410E+00
(PID.TID 0000.0001) %MON dynstat_eta_mean             =  -1.5210510611585E-16
(PID.TID 0000.0001) %MON dynstat_eta_sd               =   4.1156858973324E-01
(PID.TID 0000.0001) %MON dynstat_eta_del2             =   1.9406452209318E-02
(PID.TID 0000.0001) %MON dynstat_uvel_max             =   1.4243589250522E-01
(PID.TID 0000.0001) %MON dynstat_uvel_min             =  -1.9913990114599E-01
(PID.TID 0000.0001) %MON dynstat_uvel_mean            =  -2.3824287112479E-03
(PID.TID 0000.0001) %MON dynstat_uvel_sd              =   1.6801672743127E-02
(PID.TID 0000.0001) %MON dynstat_uvel_del2            =   5.5242550006647E-03
(PID.TID 0000.0001) %MON dynstat_vvel_max             =   1.7483126264925E-01
(PID.TID 0000.0001) %MON dynstat_vvel_min             =  -1.4739229750624E-01
(PID.TID 0000.0001) %MON dynstat_vvel_mean            =   1.6164918449457E-03
(PID.TID 0000.0001) %MON dynstat_vvel_sd              =   1.4770217631835E-02
(PID.TID 0000.0001) %MON dynstat_vvel_del2            =   5.1170485783700E-03
(PID.TID 0000.0001) %MON dynstat_wvel_max             =   3.0473165420286E-04
(PID.TID 0000.0001) %MON dynstat_wvel_min             =  -2.3865734561101E-04
(PID.TID 0000.0001) %MON dynstat_wvel_mean            =  -9.2152951569489E-24
(PID.TID 0000.0001) %MON dynstat_wvel_sd              =   2.9262451301573E-05
(PID.TID 0000.0001) %MON dynstat_wvel_del2            =   1.2050584931772E-05
(PID.TID 0000.0001) %MON dynstat_theta_max            =   2.9654565615582E+01
(PID.TID 0000.0001) %MON dynstat_theta_min            =  -1.9414884310116E+00
(PID.TID 0000.0001) %MON dynstat_theta_mean           =   3.5931893786243E+00
(PID.TID 0000.0001) %MON dynstat_theta_sd             =   4.3460982706279E+00
(PID.TID 0000.0001) %MON dynstat_theta_del2           =   1.3261746821075E-01
(PID.TID 0000.0001) %MON dynstat_salt_max             =   3.7379632325331E+01
(PID.TID 0000.0001) %MON dynstat_salt_min             =   2.9804333463836E+01
(PID.TID 0000.0001) %MON dynstat_salt_mean            =   3.4716156365166E+01
(PID.TID 0000.0001) %MON dynstat_salt_sd              =   2.9366133842913E-01
(PID.TID 0000.0001) %MON dynstat_salt_del2            =   2.4603127370311E-02
(PID.TID 0000.0001) %MON advcfl_uvel_max              =   2.9765810683471E-02
(PID.TID 0000.0001) %MON advcfl_vvel_max              =   1.6983455188203E-02
(PID.TID 0000.0001) %MON advcfl_wvel_max              =   1.3750142510912E-01
(PID.TID 0000.0001) %MON advcfl_W_hf_max              =   1.3667428792284E-01
(PID.TID 0000.0001) %MON pe_b_mean                    =   2.1675326373838E-04
(PID.TID 0000.0001) %MON ke_max                       =   1.9005995086835E-02
(PID.TID 0000.0001) %MON ke_mean                      =   2.2994451396188E-04
(PID.TID 0000.0001) %MON ke_vol                       =   1.3226782436723E+18
(PID.TID 0000.0001) %MON vort_r_min                   =  -9.4276352603253E-07
(PID.TID 0000.0001) %MON vort_r_max                   =   6.5669473381579E-07
(PID.TID 0000.0001) %MON vort_a_mean                  =  -2.5205768822151E-05
(PID.TID 0000.0001) %MON vort_a_sd                    =   7.3402935093239E-05
(PID.TID 0000.0001) %MON vort_p_mean                  =  -3.1758668837660E-05
(PID.TID 0000.0001) %MON vort_p_sd                    =   1.3126319498681E-04
(PID.TID 0000.0001) %MON surfExpan_theta_mean         =   1.1938475739189E-05
(PID.TID 0000.0001) %MON surfExpan_salt_mean          =   8.2460203922402E-07
(PID.TID 0000.0001) // =======================================================
(PID.TID 0000.0001) // End MONITOR dynamic field statistics
(PID.TID 0000.0001) // =======================================================
time,SST,SSS,fu,fv,Q,E-P,i0,i1,a,b =   2.0736E+06  5.1134E-01  3.4627E+01 -2.9273E-02 -4.5370E-02  2.5818E+02  0.0000E+00     1     2  3.0000E-01  7.0000E-01
time,fu0,fu1,fu =   2.0736E+06 -3.5633E-02 -1.4435E-02 -2.9273E-02  3.0000E-01  7.0000E-01
 cg2d: Sum(rhs),rhsMax =   9.11770658973410E-15  8.99099017949985E+00
(PID.TID 0000.0001)                    cg2d_init_res =    5.70825638375558E-01
(PID.TID 0000.0001)                       cg2d_iters =    24
(PID.TID 0000.0001)                         cg2d_res =    8.02879723713712E-14
(PID.TID 0000.0001) // =======================================================
(PID.TID 0000.0001) // Begin MONITOR dynamic field statistics
(PID.TID 0000.0001) // =======================================================
(PID.TID 0000.0001) %MON time_tsnumber                =                    49
(PID.TID 0000.0001) %MON time_secondsf                =   2.1168000000000E+06
(PID.TID 0000.0001) %MON dynstat_eta_max              =   1.0898131548784E+00
(PID.TID 0000.0001) %MON dynstat_eta_min              =  -1.1725935192558E+00
(PID.TID 0000.0001) %MON dynstat_eta_mean             =  -2.2000665118468E-16
(PID.TID 0000.0001) %MON dynstat_eta_sd               =   4.1220729415356E-01
(PID.TID 0000.0001) %MON dynstat_eta_del2             =   1.9438813450142E-02
(PID.TID 0000.0001) %MON dynstat_uvel_max             =   1.4134065977325E-01
(PID.TID 0000.0001) %MON dynstat_uvel_min             =  -1.9929452569585E-01
(PID.TID 0000.0001) %MON dynstat_uvel_mean            =  -2.2881408654154E-03
(PID.TID 0000.0001) %MON dynstat_uvel_sd              =   1.6766412640122E-02
(PID.TID 0000.0001) %MON dynstat_uvel_del2            =   5.4896025853972E-03
(PID.TID 0000.0001) %MON dynstat_vvel_max             =   1.7342956481529E-01
(PID.TID 0000.0001) %MON dynstat_vvel_min             =  -1.4584798889538E-01
(PID.TID 0000.0001) %MON dynstat_vvel_mean            =   1.2927115218351E-03
(PID.TID 0000.0001) %MON dynstat_vvel_sd              =   1.4692858185650E-02
(PID.TID 0000.0001) %MON dynstat_vvel_del2            =   5.1036022198250E-03
(PID.TID 0000.0001) %MON dynstat_wvel_max             =   3.0740730811746E-04
(PID.TID 0000.0001) %MON dynstat_wvel_min             =  -2.3854990828691E-04
(PID.TID 0000.0001) %MON dynstat_wvel_mean            =  -5.1372979747615E-22
(PID.TID 0000.0001) %MON dynstat_wvel_sd              =   2.8979464608919E-05
(PID.TID 0000.0001) %MON dynstat_wvel_del2            =   1.1961392467528E-05
(PID.TID 0000.0001) %MON dynstat_theta_max            =   2.9664417203612E+01
(PID.TID 0000.0001) %MON dynstat_theta_min            =  -1.9438856076458E+00
(PID.TID 0000.0001) %MON dynstat_theta_mean           =   3.5931097960936E+00
(PID.TID 0000.0001) %MON dynstat_theta_sd             =   4.3457011377727E+00
(PID.TID 0000.0001) %MON dynstat_theta_del2           =   1.3249677077149E-01
(PID.TID 0000.0001) %MON dynstat_salt_max             =   3.7380739298229E+01
(PID.TID 0000.0001) %MON dynstat_salt_min             =   2.9803795676130E+01
(PID.TID 0000.0001) %MON dynstat_salt_mean            =   3.4716152283679E+01
(PID.TID 0000.0001) %MON dynstat_salt_sd              =   2.9363748500741E-01
(PID.TID 0000.0001) %MON dynstat_salt_del2            =   2.4555513977177E-02
(PID.TID 0000.0001) %MON advcfl_uvel_max              =   2.9665400124063E-02
(PID.TID 0000.0001) %MON advcfl_vvel_max              =   1.6847291483898E-02
(PID.TID 0000.0001) %MON advcfl_wvel_max              =   1.3867244413545E-01
(PID.TID 0000.0001) %MON advcfl_W_hf_max              =   1.3689139510783E-01
(PID.TID 0000.0001) %MON pe_b_mean                    =   2.1742653518394E-04
(PID.TID 0000.0001) %MON ke_max                       =   1.9056467244173E-02
(PID.TID 0000.0001) %MON ke_mean                      =   2.2776057635124E-04
(PID.TID 0000.0001) %MON ke_vol                       =   1.3226782436723E+18
(PID.TID 0000.0001) %MON vort_r_min                   =  -9.6151736307610E-07
(PID.TID 0000.0001) %MON vort_r_max                   =   6.4410938112369E-07
(PID.TID 0000.0001) %MON vort_a_mean                  =  -2.5205768788933E-05
(PID.TID 0000.0001) %MON vort_a_sd                    =   7.3402953345679E-05
(PID.TID 0000.0001) %MON vort_p_mean                  =  -3.1758668795806E-05
(PID.TID 0000.0001) %MON vort_p_sd                    =   1.3126322893272E-04
(PID.TID 0000.0001) %MON surfExpan_theta_mean         =   1.1520164010634E-05
(PID.TID 0000.0001) %MON surfExpan_salt_mean          =   5.3401293971813E-07
(PID.TID 0000.0001) // =======================================================
(PID.TID 0000.0001) // End MONITOR dynamic field statistics
(PID.TID 0000.0001) // =======================================================
time,SST,SSS,fu,fv,Q,E-P,i0,i1,a,b =   2.1168E+06  4.8650E-01  3.4622E+01 -2.8920E-02 -4.4710E-02  2.5776E+02  0.0000E+00     1     2  3.1667E-01  6.8333E-01
time,fu0,fu1,fu =   2.1168E+06 -3.5633E-02 -1.4435E-02 -2.8920E-02  3.1667E-01  6.8333E-01
 cg2d: Sum(rhs),rhsMax =  -8.08103584049036E-14  8.89940299616377E+00
(PID.TID 0000.0001)                    cg2d_init_res =    5.61903489445796E-01
(PID.TID 0000.0001)                       cg2d_iters =    24
(PID.TID 0000.0001)                         cg2d_res =    7.77826958896630E-14
(PID.TID 0000.0001) // =======================================================
(PID.TID 0000.0001) // Begin MONITOR dynamic field statistics
(PID.TID 0000.0001) // =======================================================
(PID.TID 0000.0001) %MON time_tsnumber                =                    50
(PID.TID 0000.0001) %MON time_secondsf                =   2.1600000000000E+06
(PID.TID 0000.0001) %MON dynstat_eta_max              =   1.0770007320748E+00
(PID.TID 0000.0001) %MON dynstat_eta_min              =  -1.1620164813587E+00
(PID.TID 0000.0001) %MON dynstat_eta_mean             =  -3.9739513002140E-16
(PID.TID 0000.0001) %MON dynstat_eta_sd               =   4.1264390100613E-01
(PID.TID 0000.0001) %MON dynstat_eta_del2             =   1.9452229570426E-02
(PID.TID 0000.0001) %MON dynstat_uvel_max             =   1.4042026471295E-01
(PID.TID 0000.0001) %MON dynstat_uvel_min             =  -1.9972327338591E-01
(PID.TID 0000.0001) %MON dynstat_uvel_mean            =  -2.1834098352433E-03
(PID.TID 0000.0001) %MON dynstat_uvel_sd              =   1.6746396863745E-02
(PID.TID 0000.0001) %MON dynstat_uvel_del2            =   5.4566297711831E-03
(PID.TID 0000.0001) %MON dynstat_vvel_max             =   1.7139647785860E-01
(PID.TID 0000.0001) %MON dynstat_vvel_min             =  -1.4380563915883E-01
(PID.TID 0000.0001) %MON dynstat_vvel_mean            =   9.6659390540771E-04
(PID.TID 0000.0001) %MON dynstat_vvel_sd              =   1.4648533931391E-02
(PID.TID 0000.0001) %MON dynstat_vvel_del2            =   5.0892581147338E-03
(PID.TID 0000.0001) %MON dynstat_wvel_max             =   3.0956277492439E-04
(PID.TID 0000.0001) %MON dynstat_wvel_min             =  -2.3696325974281E-04
(PID.TID 0000.0001) %MON dynstat_wvel_mean            =   2.1107943516241E-22
(PID.TID 0000.0001) %MON dynstat_wvel_sd              =   2.8703440973348E-05
(PID.TID 0000.0001) %MON dynstat_wvel_del2            =   1.1867240687463E-05
(PID.TID 0000.0001) %MON dynstat_theta_max            =   2.9672787443404E+01
(PID.TID 0000.0001) %MON dynstat_theta_min            =  -1.9460975040482E+00
(PID.TID 0000.0001) %MON dynstat_theta_mean           =   3.5930352183859E+00
(PID.TID 0000.0001) %MON dynstat_theta_sd             =   4.3453038187723E+00
(PID.TID 0000.0001) %MON dynstat_theta_del2           =   1.3236625659276E-01
(PID.TID 0000.0001) %MON dynstat_salt_max             =   3.7381877501133E+01
(PID.TID 0000.0001) %MON dynstat_salt_min             =   2.9803208279501E+01
(PID.TID 0000.0001) %MON dynstat_salt_mean            =   3.4716151280889E+01
(PID.TID 0000.0001) %MON dynstat_salt_sd              =   2.9362141163542E-01
(PID.TID 0000.0001) %MON dynstat_salt_del2            =   2.4507569248064E-02
(PID.TID 0000.0001) %MON advcfl_uvel_max              =   3.0094636532852E-02
(PID.TID 0000.0001) %MON advcfl_vvel_max              =   1.6649793389453E-02
(PID.TID 0000.0001) %MON advcfl_wvel_max              =   1.4169799730503E-01
(PID.TID 0000.0001) %MON advcfl_W_hf_max              =   1.3512915301140E-01
(PID.TID 0000.0001) %MON pe_b_mean                    =   2.1788737219999E-04
(PID.TID 0000.0001) %MON ke_max                       =   1.9084532189612E-02
(PID.TID 0000.0001) %MON ke_mean                      =   2.2632841941708E-04
(PID.TID 0000.0001) %MON ke_vol                       =   1.3226782436723E+18
(PID.TID 0000.0001) %MON vort_r_min                   =  -9.7933931773369E-07
(PID.TID 0000.0001) %MON vort_r_max                   =   6.2823765817722E-07
(PID.TID 0000.0001) %MON vort_a_mean                  =  -2.5205768758518E-05
(PID.TID 0000.0001) %MON vort_a_sd                    =   7.3402973135417E-05
(PID.TID 0000.0001) %MON vort_p_mean                  =  -3.1758668757485E-05
(PID.TID 0000.0001) %MON vort_p_sd                    =   1.3126325882685E-04
(PID.TID 0000.0001) %MON surfExpan_theta_mean         =   1.1086215869506E-05
(PID.TID 0000.0001) %MON surfExpan_salt_mean          =   2.5426783243630E-07
(PID.TID 0000.0001) // =======================================================
(PID.TID 0000.0001) // End MONITOR dynamic field statistics
(PID.TID 0000.0001) // =======================================================
time,SST,SSS,fu,fv,Q,E-P,i0,i1,a,b =   2.1600E+06  4.6166E-01  3.4617E+01 -2.8567E-02 -4.4050E-02  2.5734E+02  0.0000E+00     1     2  3.3333E-01  6.6667E-01
time,fu0,fu1,fu =   2.1600E+06 -3.5633E-02 -1.4435E-02 -2.8567E-02  3.3333E-01  6.6667E-01
 cg2d: Sum(rhs),rhsMax =  -3.62015972754648E-13  8.62674627818686E+00
(PID.TID 0000.0001)                    cg2d_init_res =    5.66984048992270E-01
(PID.TID 0000.0001)                       cg2d_iters =    24
(PID.TID 0000.0001)                         cg2d_res =    6.33969512954599E-14
(PID.TID 0000.0001) // =======================================================
(PID.TID 0000.0001) // Begin MONITOR dynamic field statistics
(PID.TID 0000.0001) // =======================================================
(PID.TID 0000.0001) %MON time_tsnumber                =                    51
(PID.TID 0000.0001) %MON time_secondsf                =   2.2032000000000E+06
(PID.TID 0000.0001) %MON dynstat_eta_max              =   1.0424026096054E+00
(PID.TID 0000.0001) %MON dynstat_eta_min              =  -1.1458617858152E+00
(PID.TID 0000.0001) %MON dynstat_eta_mean             =  -4.0109353245518E-17
(PID.TID 0000.0001) %MON dynstat_eta_sd               =   4.1291307961748E-01
(PID.TID 0000.0001) %MON dynstat_eta_del2             =   1.9387617532818E-02
(PID.TID 0000.0001) %MON dynstat_uvel_max             =   1.3765684904698E-01
(PID.TID 0000.0001) %MON dynstat_uvel_min             =  -1.9989897784779E-01
(PID.TID 0000.0001) %MON dynstat_uvel_mean            =  -2.0686939036104E-03
(PID.TID 0000.0001) %MON dynstat_uvel_sd              =   1.6741849273632E-02
(PID.TID 0000.0001) %MON dynstat_uvel_del2            =   5.4264225420307E-03
(PID.TID 0000.0001) %MON dynstat_vvel_max             =   1.6880503666806E-01
(PID.TID 0000.0001) %MON dynstat_vvel_min             =  -1.4138741507888E-01
(PID.TID 0000.0001) %MON dynstat_vvel_mean            =   6.4230351710686E-04
(PID.TID 0000.0001) %MON dynstat_vvel_sd              =   1.4637104840684E-02
(PID.TID 0000.0001) %MON dynstat_vvel_del2            =   5.0719159330413E-03
(PID.TID 0000.0001) %MON dynstat_wvel_max             =   3.1121533548359E-04
(PID.TID 0000.0001) %MON dynstat_wvel_min             =  -2.3393519624192E-04
(PID.TID 0000.0001) %MON dynstat_wvel_mean            =   6.6597870776378E-23
(PID.TID 0000.0001) %MON dynstat_wvel_sd              =   2.8442609474273E-05
(PID.TID 0000.0001) %MON dynstat_wvel_del2            =   1.1765907487085E-05
(PID.TID 0000.0001) %MON dynstat_theta_max            =   2.9679741861106E+01
(PID.TID 0000.0001) %MON dynstat_theta_min            =  -1.9481357225733E+00
(PID.TID 0000.0001) %MON dynstat_theta_mean           =   3.5929651898342E+00
(PID.TID 0000.0001) %MON dynstat_theta_sd             =   4.3449140840358E+00
(PID.TID 0000.0001) %MON dynstat_theta_del2           =   1.3223614473585E-01
(PID.TID 0000.0001) %MON dynstat_salt_max             =   3.7382968851785E+01
(PID.TID 0000.0001) %MON dynstat_salt_min             =   2.9802575832807E+01
(PID.TID 0000.0001) %MON dynstat_salt_mean            =   3.4716153007738E+01
(PID.TID 0000.0001) %MON dynstat_salt_sd              =   2.9361320256881E-01
(PID.TID 0000.0001) %MON dynstat_salt_del2            =   2.4457710250732E-02
(PID.TID 0000.0001) %MON advcfl_uvel_max              =   3.0493082390260E-02
(PID.TID 0000.0001) %MON advcfl_vvel_max              =   1.6398055658652E-02
(PID.TID 0000.0001) %MON advcfl_wvel_max              =   1.6220527338032E-01
(PID.TID 0000.0001) %MON advcfl_W_hf_max              =   1.3133201874552E-01
(PID.TID 0000.0001) %MON pe_b_mean                    =   2.1817173239443E-04
(PID.TID 0000.0001) %MON ke_max                       =   1.9090293400577E-02
(PID.TID 0000.0001) %MON ke_mean                      =   2.2565312209238E-04
(PID.TID 0000.0001) %MON ke_vol                       =   1.3226782436723E+18
(PID.TID 0000.0001) %MON vort_r_min                   =  -9.9616247593585E-07
(PID.TID 0000.0001) %MON vort_r_max                   =   6.3509427134718E-07
(PID.TID 0000.0001) %MON vort_a_mean                  =  -2.5205768730553E-05
(PID.TID 0000.0001) %MON vort_a_sd                    =   7.3402994507559E-05
(PID.TID 0000.0001) %MON vort_p_mean                  =  -3.1758668722249E-05
(PID.TID 0000.0001) %MON vort_p_sd                    =   1.3126328429429E-04
(PID.TID 0000.0001) %MON surfExpan_theta_mean         =   1.0670949260915E-05
(PID.TID 0000.0001) %MON surfExpan_salt_mean          =  -1.9663939216790E-09
(PID.TID 0000.0001) // =======================================================
(PID.TID 0000.0001) // End MONITOR dynamic field statistics
(PID.TID 0000.0001) // =======================================================
time,SST,SSS,fu,fv,Q,E-P,i0,i1,a,b =   2.2032E+06  4.3683E-01  3.4612E+01 -2.8214E-02 -4.3389E-02  2.5692E+02  0.0000E+00     1     2  3.5000E-01  6.5000E-01
time,fu0,fu1,fu =   2.2032E+06 -3.5633E-02 -1.4435E-02 -2.8214E-02  3.5000E-01  6.5000E-01
 cg2d: Sum(rhs),rhsMax =  -8.73606742501920E-14  8.17661277878862E+00
(PID.TID 0000.0001)                    cg2d_init_res =    5.88477145319058E-01
(PID.TID 0000.0001)                       cg2d_iters =    24
(PID.TID 0000.0001)                         cg2d_res =    8.73178681046228E-14
(PID.TID 0000.0001) // =======================================================
(PID.TID 0000.0001) // Begin MONITOR dynamic field statistics
(PID.TID 0000.0001) // =======================================================
(PID.TID 0000.0001) %MON time_tsnumber                =                    52
(PID.TID 0000.0001) %MON time_secondsf                =   2.2464000000000E+06
(PID.TID 0000.0001) %MON dynstat_eta_max              =   9.8650484379034E-01
(PID.TID 0000.0001) %MON dynstat_eta_min              =  -1.1257341488672E+00
(PID.TID 0000.0001) %MON dynstat_eta_mean             =   8.0682773024302E-17
(PID.TID 0000.0001) %MON dynstat_eta_sd               =   4.1306137965190E-01
(PID.TID 0000.0001) %MON dynstat_eta_del2             =   1.9329303136094E-02
(PID.TID 0000.0001) %MON dynstat_uvel_max             =   1.3501294408356E-01
(PID.TID 0000.0001) %MON dynstat_uvel_min             =  -1.9982317629758E-01
(PID.TID 0000.0001) %MON dynstat_uvel_mean            =  -1.9448918599818E-03
(PID.TID 0000.0001) %MON dynstat_uvel_sd              =   1.6753785131633E-02
(PID.TID 0000.0001) %MON dynstat_uvel_del2            =   5.3967464400790E-03
(PID.TID 0000.0001) %MON dynstat_vvel_max             =   1.6573544604731E-01
(PID.TID 0000.0001) %MON dynstat_vvel_min             =  -1.4224882637114E-01
(PID.TID 0000.0001) %MON dynstat_vvel_mean            =   3.2376141983814E-04
(PID.TID 0000.0001) %MON dynstat_vvel_sd              =   1.4655784952734E-02
(PID.TID 0000.0001) %MON dynstat_vvel_del2            =   5.0530417029997E-03
(PID.TID 0000.0001) %MON dynstat_wvel_max             =   3.1238530469764E-04
(PID.TID 0000.0001) %MON dynstat_wvel_min             =  -2.3573098586114E-04
(PID.TID 0000.0001) %MON dynstat_wvel_mean            =   4.1647728924974E-23
(PID.TID 0000.0001) %MON dynstat_wvel_sd              =   2.8202207255269E-05
(PID.TID 0000.0001) %MON dynstat_wvel_del2            =   1.1661241119985E-05
(PID.TID 0000.0001) %MON dynstat_theta_max            =   2.9685365594534E+01
(PID.TID 0000.0001) %MON dynstat_theta_min            =  -1.9500114487975E+00
(PID.TID 0000.0001) %MON dynstat_theta_mean           =   3.5928989997488E+00
(PID.TID 0000.0001) %MON dynstat_theta_sd             =   4.3445381349873E+00
(PID.TID 0000.0001) %MON dynstat_theta_del2           =   1.3209867785679E-01
(PID.TID 0000.0001) %MON dynstat_salt_max             =   3.7383994638544E+01
(PID.TID 0000.0001) %MON dynstat_salt_min             =   2.9801901309423E+01
(PID.TID 0000.0001) %MON dynstat_salt_mean            =   3.4716157004259E+01
(PID.TID 0000.0001) %MON dynstat_salt_sd              =   2.9361243213965E-01
(PID.TID 0000.0001) %MON dynstat_salt_del2            =   2.4406812300183E-02
(PID.TID 0000.0001) %MON advcfl_uvel_max              =   3.1106240800839E-02
(PID.TID 0000.0001) %MON advcfl_vvel_max              =   1.6099869545003E-02
(PID.TID 0000.0001) %MON advcfl_wvel_max              =   1.7753662005549E-01
(PID.TID 0000.0001) %MON advcfl_W_hf_max              =   1.2615938522998E-01
(PID.TID 0000.0001) %MON pe_b_mean                    =   2.1832847572486E-04
(PID.TID 0000.0001) %MON ke_max                       =   1.9192043321795E-02
(PID.TID 0000.0001) %MON ke_mean                      =   2.2571651723011E-04
(PID.TID 0000.0001) %MON ke_vol                       =   1.3226782436723E+18
(PID.TID 0000.0001) %MON vort_r_min                   =  -1.0119289670083E-06
(PID.TID 0000.0001) %MON vort_r_max                   =   6.4789940805336E-07
(PID.TID 0000.0001) %MON vort_a_mean                  =  -2.5205768704875E-05
(PID.TID 0000.0001) %MON vort_a_sd                    =   7.3403017402635E-05
(PID.TID 0000.0001) %MON vort_p_mean                  =  -3.1758668689895E-05
(PID.TID 0000.0001) %MON vort_p_sd                    =   1.3126330489293E-04
(PID.TID 0000.0001) %MON surfExpan_theta_mean         =   1.0299415016735E-05
(PID.TID 0000.0001) %MON surfExpan_salt_mean          =  -2.2428869220109E-07
(PID.TID 0000.0001) // =======================================================
(PID.TID 0000.0001) // End MONITOR dynamic field statistics
(PID.TID 0000.0001) // =======================================================
time,SST,SSS,fu,fv,Q,E-P,i0,i1,a,b =   2.2464E+06  4.1199E-01  3.4607E+01 -2.7860E-02 -4.2729E-02  2.5650E+02  0.0000E+00     1     2  3.6667E-01  6.3333E-01
time,fu0,fu1,fu =   2.2464E+06 -3.5633E-02 -1.4435E-02 -2.7860E-02  3.6667E-01  6.3333E-01
 cg2d: Sum(rhs),rhsMax =  -1.50712775592865E-14  7.98902779587830E+00
(PID.TID 0000.0001)                    cg2d_init_res =    5.96107275869216E-01
(PID.TID 0000.0001)                       cg2d_iters =    24
(PID.TID 0000.0001)                         cg2d_res =    9.73020214876306E-14
(PID.TID 0000.0001) // =======================================================
(PID.TID 0000.0001) // Begin MONITOR dynamic field statistics
(PID.TID 0000.0001) // =======================================================
(PID.TID 0000.0001) %MON time_tsnumber                =                    53
(PID.TID 0000.0001) %MON time_secondsf                =   2.2896000000000E+06
(PID.TID 0000.0001) %MON dynstat_eta_max              =   9.1039405816911E-01
(PID.TID 0000.0001) %MON dynstat_eta_min              =  -1.1240028728556E+00
(PID.TID 0000.0001) %MON dynstat_eta_mean             =  -1.0322862027796E-16
(PID.TID 0000.0001) %MON dynstat_eta_sd               =   4.1314530136238E-01
(PID.TID 0000.0001) %MON dynstat_eta_del2             =   1.9265481750004E-02
(PID.TID 0000.0001) %MON dynstat_uvel_max             =   1.3775403227965E-01
(PID.TID 0000.0001) %MON dynstat_uvel_min             =  -1.9949852420035E-01
(PID.TID 0000.0001) %MON dynstat_uvel_mean            =  -1.8132462737924E-03
(PID.TID 0000.0001) %MON dynstat_uvel_sd              =   1.6783783939428E-02
(PID.TID 0000.0001) %MON dynstat_uvel_del2            =   5.3676695743241E-03
(PID.TID 0000.0001) %MON dynstat_vvel_max             =   1.6227133090880E-01
(PID.TID 0000.0001) %MON dynstat_vvel_min             =  -1.4264535333463E-01
(PID.TID 0000.0001) %MON dynstat_vvel_mean            =   1.4601929589111E-05
(PID.TID 0000.0001) %MON dynstat_vvel_sd              =   1.4699429479177E-02
(PID.TID 0000.0001) %MON dynstat_vvel_del2            =   5.0301992079961E-03
(PID.TID 0000.0001) %MON dynstat_wvel_max             =   3.1309788553292E-04
(PID.TID 0000.0001) %MON dynstat_wvel_min             =  -2.3794150749772E-04
(PID.TID 0000.0001) %MON dynstat_wvel_mean            =   1.8163823149083E-22
(PID.TID 0000.0001) %MON dynstat_wvel_sd              =   2.7983795872367E-05
(PID.TID 0000.0001) %MON dynstat_wvel_del2            =   1.1550989395256E-05
(PID.TID 0000.0001) %MON dynstat_theta_max            =   2.9689754157654E+01
(PID.TID 0000.0001) %MON dynstat_theta_min            =  -1.9517345922522E+00
(PID.TID 0000.0001) %MON dynstat_theta_mean           =   3.5928357265554E+00
(PID.TID 0000.0001) %MON dynstat_theta_sd             =   4.3441813247167E+00
(PID.TID 0000.0001) %MON dynstat_theta_del2           =   1.3198580837968E-01
(PID.TID 0000.0001) %MON dynstat_salt_max             =   3.7384941061977E+01
(PID.TID 0000.0001) %MON dynstat_salt_min             =   2.9801185972402E+01
(PID.TID 0000.0001) %MON dynstat_salt_mean            =   3.4716162734421E+01
(PID.TID 0000.0001) %MON dynstat_salt_sd              =   2.9361900125829E-01
(PID.TID 0000.0001) %MON dynstat_salt_del2            =   2.4355503954195E-02
(PID.TID 0000.0001) %MON advcfl_uvel_max              =   3.1688764822527E-02
(PID.TID 0000.0001) %MON advcfl_vvel_max              =   1.5763358538161E-02
(PID.TID 0000.0001) %MON advcfl_wvel_max              =   1.8745279458096E-01
(PID.TID 0000.0001) %MON advcfl_W_hf_max              =   1.3274389359388E-01
(PID.TID 0000.0001) %MON pe_b_mean                    =   2.1841720036156E-04
(PID.TID 0000.0001) %MON ke_max                       =   1.9439185490897E-02
(PID.TID 0000.0001) %MON ke_mean                      =   2.2647705003139E-04
(PID.TID 0000.0001) %MON ke_vol                       =   1.3226782436723E+18
(PID.TID 0000.0001) %MON vort_r_min                   =  -1.0265907730087E-06
(PID.TID 0000.0001) %MON vort_r_max                   =   6.5962296387652E-07
(PID.TID 0000.0001) %MON vort_a_mean                  =  -2.5205768680825E-05
(PID.TID 0000.0001) %MON vort_a_sd                    =   7.3403041679997E-05
(PID.TID 0000.0001) %MON vort_p_mean                  =  -3.1758668659593E-05
(PID.TID 0000.0001) %MON vort_p_sd                    =   1.3126332018548E-04
(PID.TID 0000.0001) %MON surfExpan_theta_mean         =   9.9981813598629E-06
(PID.TID 0000.0001) %MON surfExpan_salt_mean          =  -4.0364564497799E-07
(PID.TID 0000.0001) // =======================================================
(PID.TID 0000.0001) // End MONITOR dynamic field statistics
(PID.TID 0000.0001) // =======================================================
time,SST,SSS,fu,fv,Q,E-P,i0,i1,a,b =   2.2896E+06  3.8715E-01  3.4602E+01 -2.7507E-02 -4.2069E-02  2.5608E+02  0.0000E+00     1     2  3.8333E-01  6.1667E-01
time,fu0,fu1,fu =   2.2896E+06 -3.5633E-02 -1.4435E-02 -2.7507E-02  3.8333E-01  6.1667E-01
 cg2d: Sum(rhs),rhsMax =  -3.24879012580936E-14  8.10539979369868E+00
(PID.TID 0000.0001)                    cg2d_init_res =    5.84267450935624E-01
(PID.TID 0000.0001)                       cg2d_iters =    25
(PID.TID 0000.0001)                         cg2d_res =    2.50075371098431E-14
(PID.TID 0000.0001) // =======================================================
(PID.TID 0000.0001) // Begin MONITOR dynamic field statistics
(PID.TID 0000.0001) // =======================================================
(PID.TID 0000.0001) %MON time_tsnumber                =                    54
(PID.TID 0000.0001) %MON time_secondsf                =   2.3328000000000E+06
(PID.TID 0000.0001) %MON dynstat_eta_max              =   9.1594062276466E-01
(PID.TID 0000.0001) %MON dynstat_eta_min              =  -1.1671530307720E+00
(PID.TID 0000.0001) %MON dynstat_eta_mean             =   4.7851965895369E-17
(PID.TID 0000.0001) %MON dynstat_eta_sd               =   4.1322721089074E-01
(PID.TID 0000.0001) %MON dynstat_eta_del2             =   1.9188984002460E-02
(PID.TID 0000.0001) %MON dynstat_uvel_max             =   1.4216080613732E-01
(PID.TID 0000.0001) %MON dynstat_uvel_min             =  -1.9892897950071E-01
(PID.TID 0000.0001) %MON dynstat_uvel_mean            =  -1.6752482255231E-03
(PID.TID 0000.0001) %MON dynstat_uvel_sd              =   1.6833691234061E-02
(PID.TID 0000.0001) %MON dynstat_uvel_del2            =   5.3412054905588E-03
(PID.TID 0000.0001) %MON dynstat_vvel_max             =   1.6239621959494E-01
(PID.TID 0000.0001) %MON dynstat_vvel_min             =  -1.4258600082068E-01
(PID.TID 0000.0001) %MON dynstat_vvel_mean            =  -2.8186351023598E-04
(PID.TID 0000.0001) %MON dynstat_vvel_sd              =   1.4761167225214E-02
(PID.TID 0000.0001) %MON dynstat_vvel_del2            =   5.0025546471639E-03
(PID.TID 0000.0001) %MON dynstat_wvel_max             =   3.1338444882010E-04
(PID.TID 0000.0001) %MON dynstat_wvel_min             =  -2.3965876048978E-04
(PID.TID 0000.0001) %MON dynstat_wvel_mean            =  -1.6484428876175E-22
(PID.TID 0000.0001) %MON dynstat_wvel_sd              =   2.7785304475287E-05
(PID.TID 0000.0001) %MON dynstat_wvel_del2            =   1.1432365637784E-05
(PID.TID 0000.0001) %MON dynstat_theta_max            =   2.9693007163543E+01
(PID.TID 0000.0001) %MON dynstat_theta_min            =  -1.9533129747369E+00
(PID.TID 0000.0001) %MON dynstat_theta_mean           =   3.5927742785455E+00
(PID.TID 0000.0001) %MON dynstat_theta_sd             =   4.3438459799349E+00
(PID.TID 0000.0001) %MON dynstat_theta_del2           =   1.3186289563301E-01
(PID.TID 0000.0001) %MON dynstat_salt_max             =   3.7385799318167E+01
(PID.TID 0000.0001) %MON dynstat_salt_min             =   2.9800429325401E+01
(PID.TID 0000.0001) %MON dynstat_salt_mean            =   3.4716169606146E+01
(PID.TID 0000.0001) %MON dynstat_salt_sd              =   2.9363224058930E-01
(PID.TID 0000.0001) %MON dynstat_salt_del2            =   2.4307249993939E-02
(PID.TID 0000.0001) %MON advcfl_uvel_max              =   3.2231077860001E-02
(PID.TID 0000.0001) %MON advcfl_vvel_max              =   1.5775490472533E-02
(PID.TID 0000.0001) %MON advcfl_wvel_max              =   1.9190206742478E-01
(PID.TID 0000.0001) %MON advcfl_W_hf_max              =   1.4178519695721E-01
(PID.TID 0000.0001) %MON pe_b_mean                    =   2.1850381503816E-04
(PID.TID 0000.0001) %MON ke_max                       =   1.9647923768521E-02
(PID.TID 0000.0001) %MON ke_mean                      =   2.2787269519987E-04
(PID.TID 0000.0001) %MON ke_vol                       =   1.3226782436723E+18
(PID.TID 0000.0001) %MON vort_r_min                   =  -1.0401092439609E-06
(PID.TID 0000.0001) %MON vort_r_max                   =   6.7020947522048E-07
(PID.TID 0000.0001) %MON vort_a_mean                  =  -2.5205768657829E-05
(PID.TID 0000.0001) %MON vort_a_sd                    =   7.3403067129185E-05
(PID.TID 0000.0001) %MON vort_p_mean                  =  -3.1758668630619E-05
(PID.TID 0000.0001) %MON vort_p_sd                    =   1.3126332977022E-04
(PID.TID 0000.0001) %MON surfExpan_theta_mean         =   9.7819372111717E-06
(PID.TID 0000.0001) %MON surfExpan_salt_mean          =  -5.3450668966533E-07
(PID.TID 0000.0001) // =======================================================
(PID.TID 0000.0001) // End MONITOR dynamic field statistics
(PID.TID 0000.0001) // =======================================================
time,SST,SSS,fu,fv,Q,E-P,i0,i1,a,b =   2.3328E+06  3.6231E-01  3.4597E+01 -2.7154E-02 -4.1408E-02  2.5565E+02  0.0000E+00     1     2  4.0000E-01  6.0000E-01
time,fu0,fu1,fu =   2.3328E+06 -3.5633E-02 -1.4435E-02 -2.7154E-02  4.0000E-01  6.0000E-01
 cg2d: Sum(rhs),rhsMax =   1.35169653248113E-14  8.20893301702105E+00
(PID.TID 0000.0001)                    cg2d_init_res =    5.74919397349735E-01
(PID.TID 0000.0001)                       cg2d_iters =    25
(PID.TID 0000.0001)                         cg2d_res =    2.53334365932672E-14
(PID.TID 0000.0001) // =======================================================
(PID.TID 0000.0001) // Begin MONITOR dynamic field statistics
(PID.TID 0000.0001) // =======================================================
(PID.TID 0000.0001) %MON time_tsnumber                =                    55
(PID.TID 0000.0001) %MON time_secondsf                =   2.3760000000000E+06
(PID.TID 0000.0001) %MON dynstat_eta_max              =   9.2848443262734E-01
(PID.TID 0000.0001) %MON dynstat_eta_min              =  -1.2045150076611E+00
(PID.TID 0000.0001) %MON dynstat_eta_mean             =   1.2938267395971E-16
(PID.TID 0000.0001) %MON dynstat_eta_sd               =   4.1336961531198E-01
(PID.TID 0000.0001) %MON dynstat_eta_del2             =   1.9091584752286E-02
(PID.TID 0000.0001) %MON dynstat_uvel_max             =   1.5077056032810E-01
(PID.TID 0000.0001) %MON dynstat_uvel_min             =  -1.9811985505610E-01
(PID.TID 0000.0001) %MON dynstat_uvel_mean            =  -1.5325444919270E-03
(PID.TID 0000.0001) %MON dynstat_uvel_sd              =   1.6905274174861E-02
(PID.TID 0000.0001) %MON dynstat_uvel_del2            =   5.3153340111791E-03
(PID.TID 0000.0001) %MON dynstat_vvel_max             =   1.6338441235436E-01
(PID.TID 0000.0001) %MON dynstat_vvel_min             =  -1.4209152982797E-01
(PID.TID 0000.0001) %MON dynstat_vvel_mean            =  -5.6267420752417E-04
(PID.TID 0000.0001) %MON dynstat_vvel_sd              =   1.4833258786952E-02
(PID.TID 0000.0001) %MON dynstat_vvel_del2            =   4.9721073084315E-03
(PID.TID 0000.0001) %MON dynstat_wvel_max             =   3.1470706613541E-04
(PID.TID 0000.0001) %MON dynstat_wvel_min             =  -2.4070177816181E-04
(PID.TID 0000.0001) %MON dynstat_wvel_mean            =  -3.8496711745579E-23
(PID.TID 0000.0001) %MON dynstat_wvel_sd              =   2.7601749816017E-05
(PID.TID 0000.0001) %MON dynstat_wvel_del2            =   1.1309348272044E-05
(PID.TID 0000.0001) %MON dynstat_theta_max            =   2.9716306111194E+01
(PID.TID 0000.0001) %MON dynstat_theta_min            =  -1.9547517611187E+00
(PID.TID 0000.0001) %MON dynstat_theta_mean           =   3.5927134545815E+00
(PID.TID 0000.0001) %MON dynstat_theta_sd             =   4.3435331564961E+00
(PID.TID 0000.0001) %MON dynstat_theta_del2           =   1.3176853584357E-01
(PID.TID 0000.0001) %MON dynstat_salt_max             =   3.7386565442066E+01
(PID.TID 0000.0001) %MON dynstat_salt_min             =   2.9799629404332E+01
(PID.TID 0000.0001) %MON dynstat_salt_mean            =   3.4716177016715E+01
(PID.TID 0000.0001) %MON dynstat_salt_sd              =   2.9365153646564E-01
(PID.TID 0000.0001) %MON dynstat_salt_del2            =   2.4259342808767E-02
(PID.TID 0000.0001) %MON advcfl_uvel_max              =   3.2724295661720E-02
(PID.TID 0000.0001) %MON advcfl_vvel_max              =   1.5871485474757E-02
(PID.TID 0000.0001) %MON advcfl_wvel_max              =   1.9100887238478E-01
(PID.TID 0000.0001) %MON advcfl_W_hf_max              =   1.5808319221717E-01
(PID.TID 0000.0001) %MON pe_b_mean                    =   2.1865444050526E-04
(PID.TID 0000.0001) %MON ke_max                       =   1.9816498350821E-02
(PID.TID 0000.0001) %MON ke_mean                      =   2.2982625300637E-04
(PID.TID 0000.0001) %MON ke_vol                       =   1.3226782436723E+18
(PID.TID 0000.0001) %MON vort_r_min                   =  -1.0524526557602E-06
(PID.TID 0000.0001) %MON vort_r_max                   =   6.7961218078827E-07
(PID.TID 0000.0001) %MON vort_a_mean                  =  -2.5205768635291E-05
(PID.TID 0000.0001) %MON vort_a_sd                    =   7.3403093489446E-05
(PID.TID 0000.0001) %MON vort_p_mean                  =  -3.1758668602221E-05
(PID.TID 0000.0001) %MON vort_p_sd                    =   1.3126333333892E-04
(PID.TID 0000.0001) %MON surfExpan_theta_mean         =   9.6622134974287E-06
(PID.TID 0000.0001) %MON surfExpan_salt_mean          =  -6.1384906283252E-07
(PID.TID 0000.0001) // =======================================================
(PID.TID 0000.0001) // End MONITOR dynamic field statistics
(PID.TID 0000.0001) // =======================================================
time,SST,SSS,fu,fv,Q,E-P,i0,i1,a,b =   2.3760E+06  3.3747E-01  3.4592E+01 -2.6800E-02 -4.0748E-02  2.5523E+02  0.0000E+00     1     2  4.1667E-01  5.8333E-01
time,fu0,fu1,fu =   2.3760E+06 -3.5633E-02 -1.4435E-02 -2.6800E-02  4.1667E-01  5.8333E-01
 cg2d: Sum(rhs),rhsMax =  -5.23275867081452E-13  8.29950275105632E+00
(PID.TID 0000.0001)                    cg2d_init_res =    5.66184525332117E-01
(PID.TID 0000.0001)                       cg2d_iters =    25
(PID.TID 0000.0001)                         cg2d_res =    2.50401665656022E-14
(PID.TID 0000.0001) // =======================================================
(PID.TID 0000.0001) // Begin MONITOR dynamic field statistics
(PID.TID 0000.0001) // =======================================================
(PID.TID 0000.0001) %MON time_tsnumber                =                    56
(PID.TID 0000.0001) %MON time_secondsf                =   2.4192000000000E+06
(PID.TID 0000.0001) %MON dynstat_eta_max              =   9.3901558238012E-01
(PID.TID 0000.0001) %MON dynstat_eta_min              =  -1.2357047326810E+00
(PID.TID 0000.0001) %MON dynstat_eta_mean             =   2.5641755363024E-16
(PID.TID 0000.0001) %MON dynstat_eta_sd               =   4.1362869003632E-01
(PID.TID 0000.0001) %MON dynstat_eta_del2             =   1.9018803187390E-02
(PID.TID 0000.0001) %MON dynstat_uvel_max             =   1.6200892833909E-01
(PID.TID 0000.0001) %MON dynstat_uvel_min             =  -1.9707775996645E-01
(PID.TID 0000.0001) %MON dynstat_uvel_mean            =  -1.3868509844733E-03
(PID.TID 0000.0001) %MON dynstat_uvel_sd              =   1.6999872363213E-02
(PID.TID 0000.0001) %MON dynstat_uvel_del2            =   5.2900764373684E-03
(PID.TID 0000.0001) %MON dynstat_vvel_max             =   1.6417346412847E-01
(PID.TID 0000.0001) %MON dynstat_vvel_min             =  -1.4119297436054E-01
(PID.TID 0000.0001) %MON dynstat_vvel_mean            =  -8.2524107832848E-04
(PID.TID 0000.0001) %MON dynstat_vvel_sd              =   1.4908027982041E-02
(PID.TID 0000.0001) %MON dynstat_vvel_del2            =   4.9395259174295E-03
(PID.TID 0000.0001) %MON dynstat_wvel_max             =   3.1961806870501E-04
(PID.TID 0000.0001) %MON dynstat_wvel_min             =  -2.4090387279763E-04
(PID.TID 0000.0001) %MON dynstat_wvel_mean            =   3.5324166281716E-22
(PID.TID 0000.0001) %MON dynstat_wvel_sd              =   2.7426401350387E-05
(PID.TID 0000.0001) %MON dynstat_wvel_del2            =   1.1185580369827E-05
(PID.TID 0000.0001) %MON dynstat_theta_max            =   2.9759525075153E+01
(PID.TID 0000.0001) %MON dynstat_theta_min            =  -1.9560516421394E+00
(PID.TID 0000.0001) %MON dynstat_theta_mean           =   3.5926520377084E+00
(PID.TID 0000.0001) %MON dynstat_theta_sd             =   4.3432424686908E+00
(PID.TID 0000.0001) %MON dynstat_theta_del2           =   1.3163271719550E-01
(PID.TID 0000.0001) %MON dynstat_salt_max             =   3.7387239753481E+01
(PID.TID 0000.0001) %MON dynstat_salt_min             =   2.9798782921961E+01
(PID.TID 0000.0001) %MON dynstat_salt_mean            =   3.4716184375417E+01
(PID.TID 0000.0001) %MON dynstat_salt_sd              =   2.9367602033808E-01
(PID.TID 0000.0001) %MON dynstat_salt_del2            =   2.4211564673094E-02
(PID.TID 0000.0001) %MON advcfl_uvel_max              =   3.3166863116420E-02
(PID.TID 0000.0001) %MON advcfl_vvel_max              =   1.5948135527177E-02
(PID.TID 0000.0001) %MON advcfl_wvel_max              =   1.8508151846612E-01
(PID.TID 0000.0001) %MON advcfl_W_hf_max              =   1.7011990564831E-01
(PID.TID 0000.0001) %MON pe_b_mean                    =   2.1892860478098E-04
(PID.TID 0000.0001) %MON ke_max                       =   1.9943664172352E-02
(PID.TID 0000.0001) %MON ke_mean                      =   2.3225210582941E-04
(PID.TID 0000.0001) %MON ke_vol                       =   1.3226782436723E+18
(PID.TID 0000.0001) %MON vort_r_min                   =  -1.0635934260241E-06
(PID.TID 0000.0001) %MON vort_r_max                   =   6.8779305479658E-07
(PID.TID 0000.0001) %MON vort_a_mean                  =  -2.5205768612673E-05
(PID.TID 0000.0001) %MON vort_a_sd                    =   7.3403120466512E-05
(PID.TID 0000.0001) %MON vort_p_mean                  =  -3.1758668573723E-05
(PID.TID 0000.0001) %MON vort_p_sd                    =   1.3126333069652E-04
(PID.TID 0000.0001) %MON surfExpan_theta_mean         =   9.6453099577543E-06
(PID.TID 0000.0001) %MON surfExpan_salt_mean          =  -6.4134660146848E-07
(PID.TID 0000.0001) // =======================================================
(PID.TID 0000.0001) // End MONITOR dynamic field statistics
(PID.TID 0000.0001) // =======================================================
time,SST,SSS,fu,fv,Q,E-P,i0,i1,a,b =   2.4192E+06  3.1264E-01  3.4587E+01 -2.6447E-02 -4.0088E-02  2.5481E+02  0.0000E+00     1     2  4.3333E-01  5.6667E-01
time,fu0,fu1,fu =   2.4192E+06 -3.5633E-02 -1.4435E-02 -2.6447E-02  4.3333E-01  5.6667E-01
 cg2d: Sum(rhs),rhsMax =   1.78329573330416E-14  8.37678261254852E+00
(PID.TID 0000.0001)                    cg2d_init_res =    5.56435399691468E-01
(PID.TID 0000.0001)                       cg2d_iters =    25
(PID.TID 0000.0001)                         cg2d_res =    2.43338695953927E-14
(PID.TID 0000.0001) // =======================================================
(PID.TID 0000.0001) // Begin MONITOR dynamic field statistics
(PID.TID 0000.0001) // =======================================================
(PID.TID 0000.0001) %MON time_tsnumber                =                    57
(PID.TID 0000.0001) %MON time_secondsf                =   2.4624000000000E+06
(PID.TID 0000.0001) %MON dynstat_eta_max              =   9.9351510089453E-01
(PID.TID 0000.0001) %MON dynstat_eta_min              =  -1.2605190944292E+00
(PID.TID 0000.0001) %MON dynstat_eta_mean             =   4.5908049890231E-17
(PID.TID 0000.0001) %MON dynstat_eta_sd               =   4.1404814806648E-01
(PID.TID 0000.0001) %MON dynstat_eta_del2             =   1.9021622807203E-02
(PID.TID 0000.0001) %MON dynstat_uvel_max             =   1.7225779427961E-01
(PID.TID 0000.0001) %MON dynstat_uvel_min             =  -1.9581046464175E-01
(PID.TID 0000.0001) %MON dynstat_uvel_mean            =  -1.2398786475776E-03
(PID.TID 0000.0001) %MON dynstat_uvel_sd              =   1.7118073232517E-02
(PID.TID 0000.0001) %MON dynstat_uvel_del2            =   5.2659167118469E-03
(PID.TID 0000.0001) %MON dynstat_vvel_max             =   1.6477176678266E-01
(PID.TID 0000.0001) %MON dynstat_vvel_min             =  -1.3992965427260E-01
(PID.TID 0000.0001) %MON dynstat_vvel_mean            =  -1.0673628037301E-03
(PID.TID 0000.0001) %MON dynstat_vvel_sd              =   1.4978719609364E-02
(PID.TID 0000.0001) %MON dynstat_vvel_del2            =   4.9060878466056E-03
(PID.TID 0000.0001) %MON dynstat_wvel_max             =   3.2423627162577E-04
(PID.TID 0000.0001) %MON dynstat_wvel_min             =  -2.4012189135580E-04
(PID.TID 0000.0001) %MON dynstat_wvel_mean            =   1.2961061258870E-22
(PID.TID 0000.0001) %MON dynstat_wvel_sd              =   2.7252267009810E-05
(PID.TID 0000.0001) %MON dynstat_wvel_del2            =   1.1061639348489E-05
(PID.TID 0000.0001) %MON dynstat_theta_max            =   2.9794185421737E+01
(PID.TID 0000.0001) %MON dynstat_theta_min            =  -1.9572100394458E+00
(PID.TID 0000.0001) %MON dynstat_theta_mean           =   3.5925888659678E+00
(PID.TID 0000.0001) %MON dynstat_theta_sd             =   4.3429715202098E+00
(PID.TID 0000.0001) %MON dynstat_theta_del2           =   1.3149001531796E-01
(PID.TID 0000.0001) %MON dynstat_salt_max             =   3.7387826361873E+01
(PID.TID 0000.0001) %MON dynstat_salt_min             =   2.9797885594184E+01
(PID.TID 0000.0001) %MON dynstat_salt_mean            =   3.4716191133613E+01
(PID.TID 0000.0001) %MON dynstat_salt_sd              =   2.9370473064462E-01
(PID.TID 0000.0001) %MON dynstat_salt_del2            =   2.4163229190904E-02
(PID.TID 0000.0001) %MON advcfl_uvel_max              =   3.3552598482758E-02
(PID.TID 0000.0001) %MON advcfl_vvel_max              =   1.6006255832221E-02
(PID.TID 0000.0001) %MON advcfl_wvel_max              =   1.9415360991889E-01
(PID.TID 0000.0001) %MON advcfl_W_hf_max              =   1.7757373049876E-01
(PID.TID 0000.0001) %MON pe_b_mean                    =   2.1937285793024E-04
(PID.TID 0000.0001) %MON ke_max                       =   2.0028681833272E-02
(PID.TID 0000.0001) %MON ke_mean                      =   2.3506309042460E-04
(PID.TID 0000.0001) %MON ke_vol                       =   1.3226782436723E+18
(PID.TID 0000.0001) %MON vort_r_min                   =  -1.0735014774406E-06
(PID.TID 0000.0001) %MON vort_r_max                   =   6.9472237361726E-07
(PID.TID 0000.0001) %MON vort_a_mean                  =  -2.5205768589468E-05
(PID.TID 0000.0001) %MON vort_a_sd                    =   7.3403147749643E-05
(PID.TID 0000.0001) %MON vort_p_mean                  =  -3.1758668544485E-05
(PID.TID 0000.0001) %MON vort_p_sd                    =   1.3126332181818E-04
(PID.TID 0000.0001) %MON surfExpan_theta_mean         =   9.7324886794705E-06
(PID.TID 0000.0001) %MON surfExpan_salt_mean          =  -6.1914849699536E-07
(PID.TID 0000.0001) // =======================================================
(PID.TID 0000.0001) // End MONITOR dynamic field statistics
(PID.TID 0000.0001) // =======================================================
time,SST,SSS,fu,fv,Q,E-P,i0,i1,a,b =   2.4624E+06  2.8780E-01  3.4582E+01 -2.6094E-02 -3.9427E-02  2.5439E+02  0.0000E+00     1     2  4.5000E-01  5.5000E-01
time,fu0,fu1,fu =   2.4624E+06 -3.5633E-02 -1.4435E-02 -2.6094E-02  4.5000E-01  5.5000E-01
 cg2d: Sum(rhs),rhsMax =   2.26291207994223E-13  9.30280329118371E+00
(PID.TID 0000.0001)                    cg2d_init_res =    4.94074509831183E-01
(PID.TID 0000.0001)                       cg2d_iters =    24
(PID.TID 0000.0001)                         cg2d_res =    9.76758902802829E-14
(PID.TID 0000.0001) // =======================================================
(PID.TID 0000.0001) // Begin MONITOR dynamic field statistics
(PID.TID 0000.0001) // =======================================================
(PID.TID 0000.0001) %MON time_tsnumber                =                    58
(PID.TID 0000.0001) %MON time_secondsf                =   2.5056000000000E+06
(PID.TID 0000.0001) %MON dynstat_eta_max              =   1.1044691073445E+00
(PID.TID 0000.0001) %MON dynstat_eta_min              =  -1.2789240585093E+00
(PID.TID 0000.0001) %MON dynstat_eta_mean             =  -1.1601840559156E-16
(PID.TID 0000.0001) %MON dynstat_eta_sd               =   4.1465461517790E-01
(PID.TID 0000.0001) %MON dynstat_eta_del2             =   1.9068255405840E-02
(PID.TID 0000.0001) %MON dynstat_uvel_max             =   1.8136107636253E-01
(PID.TID 0000.0001) %MON dynstat_uvel_min             =  -1.9432668886994E-01
(PID.TID 0000.0001) %MON dynstat_uvel_mean            =  -1.0932695000419E-03
(PID.TID 0000.0001) %MON dynstat_uvel_sd              =   1.7259466934084E-02
(PID.TID 0000.0001) %MON dynstat_uvel_del2            =   5.2433558216541E-03
(PID.TID 0000.0001) %MON dynstat_vvel_max             =   1.6519606510976E-01
(PID.TID 0000.0001) %MON dynstat_vvel_min             =  -1.3988687133513E-01
(PID.TID 0000.0001) %MON dynstat_vvel_mean            =  -1.2872397583606E-03
(PID.TID 0000.0001) %MON dynstat_vvel_sd              =   1.5040168290067E-02
(PID.TID 0000.0001) %MON dynstat_vvel_del2            =   4.8721966044659E-03
(PID.TID 0000.0001) %MON dynstat_wvel_max             =   3.2857881955794E-04
(PID.TID 0000.0001) %MON dynstat_wvel_min             =  -2.3824102625853E-04
(PID.TID 0000.0001) %MON dynstat_wvel_mean            =  -2.1278396324335E-22
(PID.TID 0000.0001) %MON dynstat_wvel_sd              =   2.7073377773676E-05
(PID.TID 0000.0001) %MON dynstat_wvel_del2            =   1.0937932467773E-05
(PID.TID 0000.0001) %MON dynstat_theta_max            =   2.9820115050940E+01
(PID.TID 0000.0001) %MON dynstat_theta_min            =  -1.9582218922618E+00
(PID.TID 0000.0001) %MON dynstat_theta_mean           =   3.5925228285925E+00
(PID.TID 0000.0001) %MON dynstat_theta_sd             =   4.3427160898232E+00
(PID.TID 0000.0001) %MON dynstat_theta_del2           =   1.3139039538471E-01
(PID.TID 0000.0001) %MON dynstat_salt_max             =   3.7388336077576E+01
(PID.TID 0000.0001) %MON dynstat_salt_min             =   2.9796932503681E+01
(PID.TID 0000.0001) %MON dynstat_salt_mean            =   3.4716196805555E+01
(PID.TID 0000.0001) %MON dynstat_salt_sd              =   2.9373628638807E-01
(PID.TID 0000.0001) %MON dynstat_salt_del2            =   2.4121038397773E-02
(PID.TID 0000.0001) %MON advcfl_uvel_max              =   3.3876593846053E-02
(PID.TID 0000.0001) %MON advcfl_vvel_max              =   1.6047473012236E-02
(PID.TID 0000.0001) %MON advcfl_wvel_max              =   2.0392114696218E-01
(PID.TID 0000.0001) %MON advcfl_W_hf_max              =   1.8493528185302E-01
(PID.TID 0000.0001) %MON pe_b_mean                    =   2.2001597086021E-04
(PID.TID 0000.0001) %MON ke_max                       =   2.0071273297985E-02
(PID.TID 0000.0001) %MON ke_mean                      =   2.3817656704062E-04
(PID.TID 0000.0001) %MON ke_vol                       =   1.3226782436723E+18
(PID.TID 0000.0001) %MON vort_r_min                   =  -1.0821419372915E-06
(PID.TID 0000.0001) %MON vort_r_max                   =   7.0037801437313E-07
(PID.TID 0000.0001) %MON vort_a_mean                  =  -2.5205768565212E-05
(PID.TID 0000.0001) %MON vort_a_sd                    =   7.3403175026430E-05
(PID.TID 0000.0001) %MON vort_p_mean                  =  -3.1758668513923E-05
(PID.TID 0000.0001) %MON vort_p_sd                    =   1.3126330682149E-04
(PID.TID 0000.0001) %MON surfExpan_theta_mean         =   9.9221595409191E-06
(PID.TID 0000.0001) %MON surfExpan_salt_mean          =  -5.5118680285742E-07
(PID.TID 0000.0001) // =======================================================
(PID.TID 0000.0001) // End MONITOR dynamic field statistics
(PID.TID 0000.0001) // =======================================================
time,SST,SSS,fu,fv,Q,E-P,i0,i1,a,b =   2.5056E+06  2.6296E-01  3.4578E+01 -2.5740E-02 -3.8767E-02  2.5397E+02  0.0000E+00     1     2  4.6667E-01  5.3333E-01
time,fu0,fu1,fu =   2.5056E+06 -3.5633E-02 -1.4435E-02 -2.5740E-02  4.6667E-01  5.3333E-01
 cg2d: Sum(rhs),rhsMax =  -1.21042065259758E-13  1.01469456395720E+01
(PID.TID 0000.0001)                    cg2d_init_res =    4.43535494585408E-01
(PID.TID 0000.0001)                       cg2d_iters =    24
(PID.TID 0000.0001)                         cg2d_res =    8.69816839233751E-14
(PID.TID 0000.0001) // =======================================================
(PID.TID 0000.0001) // Begin MONITOR dynamic field statistics
(PID.TID 0000.0001) // =======================================================
(PID.TID 0000.0001) %MON time_tsnumber                =                    59
(PID.TID 0000.0001) %MON time_secondsf                =   2.5488000000000E+06
(PID.TID 0000.0001) %MON dynstat_eta_max              =   1.2028028466179E+00
(PID.TID 0000.0001) %MON dynstat_eta_min              =  -1.2910385259539E+00
(PID.TID 0000.0001) %MON dynstat_eta_mean             =   1.1910624725947E-16
(PID.TID 0000.0001) %MON dynstat_eta_sd               =   4.1545534035715E-01
(PID.TID 0000.0001) %MON dynstat_eta_del2             =   1.9099406890737E-02
(PID.TID 0000.0001) %MON dynstat_uvel_max             =   1.8917861389055E-01
(PID.TID 0000.0001) %MON dynstat_uvel_min             =  -1.9263583586857E-01
(PID.TID 0000.0001) %MON dynstat_uvel_mean            =  -9.4853722468430E-04
(PID.TID 0000.0001) %MON dynstat_uvel_sd              =   1.7422469383061E-02
(PID.TID 0000.0001) %MON dynstat_uvel_del2            =   5.2225336506210E-03
(PID.TID 0000.0001) %MON dynstat_vvel_max             =   1.6547075890065E-01
(PID.TID 0000.0001) %MON dynstat_vvel_min             =  -1.4120126450777E-01
(PID.TID 0000.0001) %MON dynstat_vvel_mean            =  -1.4834804025230E-03
(PID.TID 0000.0001) %MON dynstat_vvel_sd              =   1.5089214539514E-02
(PID.TID 0000.0001) %MON dynstat_vvel_del2            =   4.8388813820535E-03
(PID.TID 0000.0001) %MON dynstat_wvel_max             =   3.3266515633802E-04
(PID.TID 0000.0001) %MON dynstat_wvel_min             =  -2.3517926900597E-04
(PID.TID 0000.0001) %MON dynstat_wvel_mean            =   6.2190345890118E-22
(PID.TID 0000.0001) %MON dynstat_wvel_sd              =   2.6885799875818E-05
(PID.TID 0000.0001) %MON dynstat_wvel_del2            =   1.0816133149003E-05
(PID.TID 0000.0001) %MON dynstat_theta_max            =   2.9837197918161E+01
(PID.TID 0000.0001) %MON dynstat_theta_min            =  -1.9590794922154E+00
(PID.TID 0000.0001) %MON dynstat_theta_mean           =   3.5924529007711E+00
(PID.TID 0000.0001) %MON dynstat_theta_sd             =   4.3424734312708E+00
(PID.TID 0000.0001) %MON dynstat_theta_del2           =   1.3123259405873E-01
(PID.TID 0000.0001) %MON dynstat_salt_max             =   3.7388777420807E+01
(PID.TID 0000.0001) %MON dynstat_salt_min             =   2.9795918491107E+01
(PID.TID 0000.0001) %MON dynstat_salt_mean            =   3.4716200981638E+01
(PID.TID 0000.0001) %MON dynstat_salt_sd              =   2.9376992444284E-01
(PID.TID 0000.0001) %MON dynstat_salt_del2            =   2.4072224032772E-02
(PID.TID 0000.0001) %MON advcfl_uvel_max              =   3.4679217287866E-02
(PID.TID 0000.0001) %MON advcfl_vvel_max              =   1.6074157311241E-02
(PID.TID 0000.0001) %MON advcfl_wvel_max              =   2.0819874386096E-01
(PID.TID 0000.0001) %MON advcfl_W_hf_max              =   1.8883883297273E-01
(PID.TID 0000.0001) %MON pe_b_mean                    =   2.2086652175917E-04
(PID.TID 0000.0001) %MON ke_max                       =   2.0071554921761E-02
(PID.TID 0000.0001) %MON ke_mean                      =   2.4151818520642E-04
(PID.TID 0000.0001) %MON ke_vol                       =   1.3226782436723E+18
(PID.TID 0000.0001) %MON vort_r_min                   =  -1.0894746516135E-06
(PID.TID 0000.0001) %MON vort_r_max                   =   7.0474440698819E-07
(PID.TID 0000.0001) %MON vort_a_mean                  =  -2.5205768539509E-05
(PID.TID 0000.0001) %MON vort_a_sd                    =   7.3403201996812E-05
(PID.TID 0000.0001) %MON vort_p_mean                  =  -3.1758668481538E-05
(PID.TID 0000.0001) %MON vort_p_sd                    =   1.3126328613981E-04
(PID.TID 0000.0001) %MON surfExpan_theta_mean         =   1.0203965756196E-05
(PID.TID 0000.0001) %MON surfExpan_salt_mean          =  -4.4414992099982E-07
(PID.TID 0000.0001) // =======================================================
(PID.TID 0000.0001) // End MONITOR dynamic field statistics
(PID.TID 0000.0001) // =======================================================
time,SST,SSS,fu,fv,Q,E-P,i0,i1,a,b =   2.5488E+06  2.3812E-01  3.4573E+01 -2.5387E-02 -3.8106E-02  2.5355E+02  0.0000E+00     1     2  4.8333E-01  5.1667E-01
time,fu0,fu1,fu =   2.5488E+06 -3.5633E-02 -1.4435E-02 -2.5387E-02  4.8333E-01  5.1667E-01
 cg2d: Sum(rhs),rhsMax =  -1.18793863634892E-14  1.08659385025877E+01
(PID.TID 0000.0001)                    cg2d_init_res =    4.02742132093129E-01
(PID.TID 0000.0001)                       cg2d_iters =    24
(PID.TID 0000.0001)                         cg2d_res =    7.74131607497052E-14
(PID.TID 0000.0001) // =======================================================
(PID.TID 0000.0001) // Begin MONITOR dynamic field statistics
(PID.TID 0000.0001) // =======================================================
(PID.TID 0000.0001) %MON time_tsnumber                =                    60
(PID.TID 0000.0001) %MON time_secondsf                =   2.5920000000000E+06
(PID.TID 0000.0001) %MON dynstat_eta_max              =   1.2865751310494E+00
(PID.TID 0000.0001) %MON dynstat_eta_min              =  -1.2971153991902E+00
(PID.TID 0000.0001) %MON dynstat_eta_mean             =   6.0150433791199E-17
(PID.TID 0000.0001) %MON dynstat_eta_sd               =   4.1643852576996E-01
(PID.TID 0000.0001) %MON dynstat_eta_del2             =   1.9151053592986E-02
(PID.TID 0000.0001) %MON dynstat_uvel_max             =   1.9558918702892E-01
(PID.TID 0000.0001) %MON dynstat_uvel_min             =  -1.9074768851079E-01
(PID.TID 0000.0001) %MON dynstat_uvel_mean            =  -8.0703894462269E-04
(PID.TID 0000.0001) %MON dynstat_uvel_sd              =   1.7604277014510E-02
(PID.TID 0000.0001) %MON dynstat_uvel_del2            =   5.2033869200038E-03
(PID.TID 0000.0001) %MON dynstat_vvel_max             =   1.6562663139481E-01
(PID.TID 0000.0001) %MON dynstat_vvel_min             =  -1.4311882273501E-01
(PID.TID 0000.0001) %MON dynstat_vvel_mean            =  -1.6551063664060E-03
(PID.TID 0000.0001) %MON dynstat_vvel_sd              =   1.5124824845739E-02
(PID.TID 0000.0001) %MON dynstat_vvel_del2            =   4.8074497012187E-03
(PID.TID 0000.0001) %MON dynstat_wvel_max             =   3.3651588264445E-04
(PID.TID 0000.0001) %MON dynstat_wvel_min             =  -2.3089018597410E-04
(PID.TID 0000.0001) %MON dynstat_wvel_mean            =  -2.4152299804353E-23
(PID.TID 0000.0001) %MON dynstat_wvel_sd              =   2.6688451785318E-05
(PID.TID 0000.0001) %MON dynstat_wvel_del2            =   1.0695377585632E-05
(PID.TID 0000.0001) %MON dynstat_theta_max            =   2.9845363917640E+01
(PID.TID 0000.0001) %MON dynstat_theta_min            =  -1.9597731146465E+00
(PID.TID 0000.0001) %MON dynstat_theta_mean           =   3.5923782757435E+00
(PID.TID 0000.0001) %MON dynstat_theta_sd             =   4.3422380540504E+00
(PID.TID 0000.0001) %MON dynstat_theta_del2           =   1.3108870680719E-01
(PID.TID 0000.0001) %MON dynstat_salt_max             =   3.7389161918765E+01
(PID.TID 0000.0001) %MON dynstat_salt_min             =   2.9794838547983E+01
(PID.TID 0000.0001) %MON dynstat_salt_mean            =   3.4716203352533E+01
(PID.TID 0000.0001) %MON dynstat_salt_sd              =   2.9380432757658E-01
(PID.TID 0000.0001) %MON dynstat_salt_del2            =   2.4025429636702E-02
(PID.TID 0000.0001) %MON advcfl_uvel_max              =   3.5854369458787E-02
(PID.TID 0000.0001) %MON advcfl_vvel_max              =   1.6089299074102E-02
(PID.TID 0000.0001) %MON advcfl_wvel_max              =   2.0679506421053E-01
(PID.TID 0000.0001) %MON advcfl_W_hf_max              =   1.8749043635639E-01
(PID.TID 0000.0001) %MON pe_b_mean                    =   2.2191313096088E-04
(PID.TID 0000.0001) %MON ke_max                       =   2.0029966763874E-02
(PID.TID 0000.0001) %MON ke_mean                      =   2.4502332816414E-04
(PID.TID 0000.0001) %MON ke_vol                       =   1.3226782436723E+18
(PID.TID 0000.0001) %MON vort_r_min                   =  -1.0954531506756E-06
(PID.TID 0000.0001) %MON vort_r_max                   =   7.0781155335311E-07
(PID.TID 0000.0001) %MON vort_a_mean                  =  -2.5205768512053E-05
(PID.TID 0000.0001) %MON vort_a_sd                    =   7.3403228381637E-05
(PID.TID 0000.0001) %MON vort_p_mean                  =  -3.1758668446944E-05
(PID.TID 0000.0001) %MON vort_p_sd                    =   1.3126326003382E-04
(PID.TID 0000.0001) %MON surfExpan_theta_mean         =   1.0568728900794E-05
(PID.TID 0000.0001) %MON surfExpan_salt_mean          =  -3.0480119612254E-07
(PID.TID 0000.0001) // =======================================================
(PID.TID 0000.0001) // End MONITOR dynamic field statistics
(PID.TID 0000.0001) // =======================================================
time,SST,SSS,fu,fv,Q,E-P,i0,i1,a,b =   2.5920E+06  2.1328E-01  3.4568E+01 -2.5034E-02 -3.7446E-02  2.5313E+02  0.0000E+00     1     2  5.0000E-01  5.0000E-01
time,fu0,fu1,fu =   2.5920E+06 -3.5633E-02 -1.4435E-02 -2.5034E-02  5.0000E-01  5.0000E-01
 cg2d: Sum(rhs),rhsMax =  -6.31855678889792E-14  1.14474202957868E+01
(PID.TID 0000.0001)                    cg2d_init_res =    3.69684302322383E-01
(PID.TID 0000.0001)                       cg2d_iters =    24
(PID.TID 0000.0001)                         cg2d_res =    6.76381060612607E-14
(PID.TID 0000.0001) // =======================================================
(PID.TID 0000.0001) // Begin MONITOR dynamic field statistics
(PID.TID 0000.0001) // =======================================================
(PID.TID 0000.0001) %MON time_tsnumber                =                    61
(PID.TID 0000.0001) %MON time_secondsf                =   2.6352000000000E+06
(PID.TID 0000.0001) %MON dynstat_eta_max              =   1.3543459657528E+00
(PID.TID 0000.0001) %MON dynstat_eta_min              =  -1.2975219071786E+00
(PID.TID 0000.0001) %MON dynstat_eta_mean             =   1.4584713118913E-16
(PID.TID 0000.0001) %MON dynstat_eta_sd               =   4.1757657409739E-01
(PID.TID 0000.0001) %MON dynstat_eta_del2             =   1.9262085909952E-02
(PID.TID 0000.0001) %MON dynstat_uvel_max             =   2.0049265224129E-01
(PID.TID 0000.0001) %MON dynstat_uvel_min             =  -1.8867209870088E-01
(PID.TID 0000.0001) %MON dynstat_uvel_mean            =  -6.6993444332812E-04
(PID.TID 0000.0001) %MON dynstat_uvel_sd              =   1.7800912978520E-02
(PID.TID 0000.0001) %MON dynstat_uvel_del2            =   5.1856480977518E-03
(PID.TID 0000.0001) %MON dynstat_vvel_max             =   1.6569912987442E-01
(PID.TID 0000.0001) %MON dynstat_vvel_min             =  -1.4347831726214E-01
(PID.TID 0000.0001) %MON dynstat_vvel_mean            =  -1.8015465552568E-03
(PID.TID 0000.0001) %MON dynstat_vvel_sd              =   1.5147957895484E-02
(PID.TID 0000.0001) %MON dynstat_vvel_del2            =   4.7792574157338E-03
(PID.TID 0000.0001) %MON dynstat_wvel_max             =   3.4015172568796E-04
(PID.TID 0000.0001) %MON dynstat_wvel_min             =  -2.2536326975780E-04
(PID.TID 0000.0001) %MON dynstat_wvel_mean            =  -4.6528334285512E-22
(PID.TID 0000.0001) %MON dynstat_wvel_sd              =   2.6482834766994E-05
(PID.TID 0000.0001) %MON dynstat_wvel_del2            =   1.0579297394174E-05
(PID.TID 0000.0001) %MON dynstat_theta_max            =   2.9844206231214E+01
(PID.TID 0000.0001) %MON dynstat_theta_min            =  -1.9602915690904E+00
(PID.TID 0000.0001) %MON dynstat_theta_mean           =   3.5922982637402E+00
(PID.TID 0000.0001) %MON dynstat_theta_sd             =   4.3420042142372E+00
(PID.TID 0000.0001) %MON dynstat_theta_del2           =   1.3097656903393E-01
(PID.TID 0000.0001) %MON dynstat_salt_max             =   3.7389501992969E+01
(PID.TID 0000.0001) %MON dynstat_salt_min             =   2.9793688187515E+01
(PID.TID 0000.0001) %MON dynstat_salt_mean            =   3.4716203697679E+01
(PID.TID 0000.0001) %MON dynstat_salt_sd              =   2.9383823374136E-01
(PID.TID 0000.0001) %MON dynstat_salt_del2            =   2.3982227074524E-02
(PID.TID 0000.0001) %MON advcfl_uvel_max              =   3.6753246620778E-02
(PID.TID 0000.0001) %MON advcfl_vvel_max              =   1.6096341720028E-02
(PID.TID 0000.0001) %MON advcfl_wvel_max              =   1.9970633574292E-01
(PID.TID 0000.0001) %MON advcfl_W_hf_max              =   1.8088759402512E-01
(PID.TID 0000.0001) %MON pe_b_mean                    =   2.2312768213631E-04
(PID.TID 0000.0001) %MON ke_max                       =   1.9947199960441E-02
(PID.TID 0000.0001) %MON ke_mean                      =   2.4863588965722E-04
(PID.TID 0000.0001) %MON ke_vol                       =   1.3226782436723E+18
(PID.TID 0000.0001) %MON vort_r_min                   =  -1.1000245852807E-06
(PID.TID 0000.0001) %MON vort_r_max                   =   7.0957407919200E-07
(PID.TID 0000.0001) %MON vort_a_mean                  =  -2.5205768482640E-05
(PID.TID 0000.0001) %MON vort_a_sd                    =   7.3403253933715E-05
(PID.TID 0000.0001) %MON vort_p_mean                  =  -3.1758668409884E-05
(PID.TID 0000.0001) %MON vort_p_sd                    =   1.3126322922761E-04
(PID.TID 0000.0001) %MON surfExpan_theta_mean         =   1.1002969160531E-05
(PID.TID 0000.0001) %MON surfExpan_salt_mean          =  -1.4113645478463E-07
(PID.TID 0000.0001) // =======================================================
(PID.TID 0000.0001) // End MONITOR dynamic field statistics
(PID.TID 0000.0001) // =======================================================
time,SST,SSS,fu,fv,Q,E-P,i0,i1,a,b =   2.6352E+06  1.8845E-01  3.4563E+01 -2.4681E-02 -3.6786E-02  2.5270E+02  0.0000E+00     1     2  5.1667E-01  4.8333E-01
time,fu0,fu1,fu =   2.6352E+06 -3.5633E-02 -1.4435E-02 -2.4681E-02  5.1667E-01  4.8333E-01
 cg2d: Sum(rhs),rhsMax =  -8.38218383591993E-15  1.18834282839483E+01
(PID.TID 0000.0001)                    cg2d_init_res =    3.43510370266982E-01
(PID.TID 0000.0001)                       cg2d_iters =    24
(PID.TID 0000.0001)                         cg2d_res =    4.72052425843893E-14
(PID.TID 0000.0001) // =======================================================
(PID.TID 0000.0001) // Begin MONITOR dynamic field statistics
(PID.TID 0000.0001) // =======================================================
(PID.TID 0000.0001) %MON time_tsnumber                =                    62
(PID.TID 0000.0001) %MON time_secondsf                =   2.6784000000000E+06
(PID.TID 0000.0001) %MON dynstat_eta_max              =   1.4051854618886E+00
(PID.TID 0000.0001) %MON dynstat_eta_min              =  -1.2927187506494E+00
(PID.TID 0000.0001) %MON dynstat_eta_mean             =  -1.3613989835680E-17
(PID.TID 0000.0001) %MON dynstat_eta_sd               =   4.1883133839170E-01
(PID.TID 0000.0001) %MON dynstat_eta_del2             =   1.9437899462686E-02
(PID.TID 0000.0001) %MON dynstat_uvel_max             =   2.0381175483278E-01
(PID.TID 0000.0001) %MON dynstat_uvel_min             =  -1.8641870000536E-01
(PID.TID 0000.0001) %MON dynstat_uvel_mean            =  -5.3816290747854E-04
(PID.TID 0000.0001) %MON dynstat_uvel_sd              =   1.8007384501678E-02
(PID.TID 0000.0001) %MON dynstat_uvel_del2            =   5.1694704357538E-03
(PID.TID 0000.0001) %MON dynstat_vvel_max             =   1.6572692351115E-01
(PID.TID 0000.0001) %MON dynstat_vvel_min             =  -1.4410868573569E-01
(PID.TID 0000.0001) %MON dynstat_vvel_mean            =  -1.9226358425100E-03
(PID.TID 0000.0001) %MON dynstat_vvel_sd              =   1.5161193209906E-02
(PID.TID 0000.0001) %MON dynstat_vvel_del2            =   4.7534424538192E-03
(PID.TID 0000.0001) %MON dynstat_wvel_max             =   3.4359250238456E-04
(PID.TID 0000.0001) %MON dynstat_wvel_min             =  -2.1862338910178E-04
(PID.TID 0000.0001) %MON dynstat_wvel_mean            =   7.4835815585509E-23
(PID.TID 0000.0001) %MON dynstat_wvel_sd              =   2.6272785240874E-05
(PID.TID 0000.0001) %MON dynstat_wvel_del2            =   1.0466918214112E-05
(PID.TID 0000.0001) %MON dynstat_theta_max            =   2.9832599859823E+01
(PID.TID 0000.0001) %MON dynstat_theta_min            =  -1.9606228513241E+00
(PID.TID 0000.0001) %MON dynstat_theta_mean           =   3.5922123576477E+00
(PID.TID 0000.0001) %MON dynstat_theta_sd             =   4.3417674940434E+00
(PID.TID 0000.0001) %MON dynstat_theta_del2           =   1.3084338023363E-01
(PID.TID 0000.0001) %MON dynstat_salt_max             =   3.7389810213021E+01
(PID.TID 0000.0001) %MON dynstat_salt_min             =   2.9792463772611E+01
(PID.TID 0000.0001) %MON dynstat_salt_mean            =   3.4716201894161E+01
(PID.TID 0000.0001) %MON dynstat_salt_sd              =   2.9387057890371E-01
(PID.TID 0000.0001) %MON dynstat_salt_del2            =   2.3938738501497E-02
(PID.TID 0000.0001) %MON advcfl_uvel_max              =   3.7361686854080E-02
(PID.TID 0000.0001) %MON advcfl_vvel_max              =   1.6099041648958E-02
(PID.TID 0000.0001) %MON advcfl_wvel_max              =   1.8712295319249E-01
(PID.TID 0000.0001) %MON advcfl_W_hf_max              =   1.6920743216319E-01
(PID.TID 0000.0001) %MON pe_b_mean                    =   2.2447063721110E-04
(PID.TID 0000.0001) %MON ke_max                       =   1.9824128378801E-02
(PID.TID 0000.0001) %MON ke_mean                      =   2.5230504599797E-04
(PID.TID 0000.0001) %MON ke_vol                       =   1.3226782436723E+18
(PID.TID 0000.0001) %MON vort_r_min                   =  -1.1031313152592E-06
(PID.TID 0000.0001) %MON vort_r_max                   =   7.1003038525304E-07
(PID.TID 0000.0001) %MON vort_a_mean                  =  -2.5205768451165E-05
(PID.TID 0000.0001) %MON vort_a_sd                    =   7.3403278444664E-05
(PID.TID 0000.0001) %MON vort_p_mean                  =  -3.1758668370227E-05
(PID.TID 0000.0001) %MON vort_p_sd                    =   1.3126319456681E-04
(PID.TID 0000.0001) %MON surfExpan_theta_mean         =   1.1487603784211E-05
(PID.TID 0000.0001) %MON surfExpan_salt_mean          =   3.8243013811527E-08
(PID.TID 0000.0001) // =======================================================
(PID.TID 0000.0001) // End MONITOR dynamic field statistics
(PID.TID 0000.0001) // =======================================================
time,SST,SSS,fu,fv,Q,E-P,i0,i1,a,b =   2.6784E+06  1.6361E-01  3.4558E+01 -2.4327E-02 -3.6125E-02  2.5228E+02  0.0000E+00     1     2  5.3333E-01  4.6667E-01
time,fu0,fu1,fu =   2.6784E+06 -3.5633E-02 -1.4435E-02 -2.4327E-02  5.3333E-01  4.6667E-01
 cg2d: Sum(rhs),rhsMax =   8.49043058082088E-14  1.21703391383120E+01
(PID.TID 0000.0001)                    cg2d_init_res =    3.24125024758631E-01
(PID.TID 0000.0001)                       cg2d_iters =    24
(PID.TID 0000.0001)                         cg2d_res =    4.58170502148623E-14
(PID.TID 0000.0001) // =======================================================
(PID.TID 0000.0001) // Begin MONITOR dynamic field statistics
(PID.TID 0000.0001) // =======================================================
(PID.TID 0000.0001) %MON time_tsnumber                =                    63
(PID.TID 0000.0001) %MON time_secondsf                =   2.7216000000000E+06
(PID.TID 0000.0001) %MON dynstat_eta_max              =   1.4386674143226E+00
(PID.TID 0000.0001) %MON dynstat_eta_min              =  -1.2832394788895E+00
(PID.TID 0000.0001) %MON dynstat_eta_mean             =   1.1084041624514E-18
(PID.TID 0000.0001) %MON dynstat_eta_sd               =   4.2016060559713E-01
(PID.TID 0000.0001) %MON dynstat_eta_del2             =   1.9618485130509E-02
(PID.TID 0000.0001) %MON dynstat_uvel_max             =   2.0549297833833E-01
(PID.TID 0000.0001) %MON dynstat_uvel_min             =  -1.8399665099985E-01
(PID.TID 0000.0001) %MON dynstat_uvel_mean            =  -4.1244617496635E-04
(PID.TID 0000.0001) %MON dynstat_uvel_sd              =   1.8217927302958E-02
(PID.TID 0000.0001) %MON dynstat_uvel_del2            =   5.1547422664041E-03
(PID.TID 0000.0001) %MON dynstat_vvel_max             =   1.6652454220215E-01
(PID.TID 0000.0001) %MON dynstat_vvel_min             =  -1.4475242662016E-01
(PID.TID 0000.0001) %MON dynstat_vvel_mean            =  -2.0185945730763E-03
(PID.TID 0000.0001) %MON dynstat_vvel_sd              =   1.5168183862639E-02
(PID.TID 0000.0001) %MON dynstat_vvel_del2            =   4.7308189572939E-03
(PID.TID 0000.0001) %MON dynstat_wvel_max             =   3.4685627965142E-04
(PID.TID 0000.0001) %MON dynstat_wvel_min             =  -2.1072969495775E-04
(PID.TID 0000.0001) %MON dynstat_wvel_mean            =   7.0925113352637E-22
(PID.TID 0000.0001) %MON dynstat_wvel_sd              =   2.6063619719732E-05
(PID.TID 0000.0001) %MON dynstat_wvel_del2            =   1.0359408380854E-05
(PID.TID 0000.0001) %MON dynstat_theta_max            =   2.9810616099073E+01
(PID.TID 0000.0001) %MON dynstat_theta_min            =  -1.9607548179332E+00
(PID.TID 0000.0001) %MON dynstat_theta_mean           =   3.5921203487201E+00
(PID.TID 0000.0001) %MON dynstat_theta_sd             =   4.3415235207952E+00
(PID.TID 0000.0001) %MON dynstat_theta_del2           =   1.3070843300901E-01
(PID.TID 0000.0001) %MON dynstat_salt_max             =   3.7390098572035E+01
(PID.TID 0000.0001) %MON dynstat_salt_min             =   2.9791162801675E+01
(PID.TID 0000.0001) %MON dynstat_salt_mean            =   3.4716197917048E+01
(PID.TID 0000.0001) %MON dynstat_salt_sd              =   2.9390036950240E-01
(PID.TID 0000.0001) %MON dynstat_salt_del2            =   2.3899618062803E-02
(PID.TID 0000.0001) %MON advcfl_uvel_max              =   3.7669879804959E-02
(PID.TID 0000.0001) %MON advcfl_vvel_max              =   1.6176523908656E-02
(PID.TID 0000.0001) %MON advcfl_wvel_max              =   1.6942747916806E-01
(PID.TID 0000.0001) %MON advcfl_W_hf_max              =   1.5280479799314E-01
(PID.TID 0000.0001) %MON pe_b_mean                    =   2.2589772694270E-04
(PID.TID 0000.0001) %MON ke_max                       =   1.9661756625463E-02
(PID.TID 0000.0001) %MON ke_mean                      =   2.5598077830331E-04
(PID.TID 0000.0001) %MON ke_vol                       =   1.3226782436723E+18
(PID.TID 0000.0001) %MON vort_r_min                   =  -1.1047120436558E-06
(PID.TID 0000.0001) %MON vort_r_max                   =   7.0918213816480E-07
(PID.TID 0000.0001) %MON vort_a_mean                  =  -2.5205768417634E-05
(PID.TID 0000.0001) %MON vort_a_sd                    =   7.3403301747279E-05
(PID.TID 0000.0001) %MON vort_p_mean                  =  -3.1758668327979E-05
(PID.TID 0000.0001) %MON vort_p_sd                    =   1.3126315695875E-04
(PID.TID 0000.0001) %MON surfExpan_theta_mean         =   1.2005708929618E-05
(PID.TID 0000.0001) %MON surfExpan_salt_mean          =   2.2564113293331E-07
(PID.TID 0000.0001) // =======================================================
(PID.TID 0000.0001) // End MONITOR dynamic field statistics
(PID.TID 0000.0001) // =======================================================
time,SST,SSS,fu,fv,Q,E-P,i0,i1,a,b =   2.7216E+06  1.3877E-01  3.4553E+01 -2.3974E-02 -3.5465E-02  2.5186E+02  0.0000E+00     1     2  5.5000E-01  4.5000E-01
time,fu0,fu1,fu =   2.7216E+06 -3.5633E-02 -1.4435E-02 -2.3974E-02  5.5000E-01  4.5000E-01
 cg2d: Sum(rhs),rhsMax =  -1.53460577578812E-13  1.23086921090001E+01
(PID.TID 0000.0001)                    cg2d_init_res =    3.11872198478269E-01
(PID.TID 0000.0001)                       cg2d_iters =    24
(PID.TID 0000.0001)                         cg2d_res =    5.25836907004520E-14
(PID.TID 0000.0001) // =======================================================
(PID.TID 0000.0001) // Begin MONITOR dynamic field statistics
(PID.TID 0000.0001) // =======================================================
(PID.TID 0000.0001) %MON time_tsnumber                =                    64
(PID.TID 0000.0001) %MON time_secondsf                =   2.7648000000000E+06
(PID.TID 0000.0001) %MON dynstat_eta_max              =   1.4548492150343E+00
(PID.TID 0000.0001) %MON dynstat_eta_min              =  -1.3064070140532E+00
(PID.TID 0000.0001) %MON dynstat_eta_mean             =  -5.1315978938878E-17
(PID.TID 0000.0001) %MON dynstat_eta_sd               =   4.2152467936242E-01
(PID.TID 0000.0001) %MON dynstat_eta_del2             =   1.9762617664706E-02
(PID.TID 0000.0001) %MON dynstat_uvel_max             =   2.0550748312072E-01
(PID.TID 0000.0001) %MON dynstat_uvel_min             =  -1.8141444104540E-01
(PID.TID 0000.0001) %MON dynstat_uvel_mean            =  -2.9328014006941E-04
(PID.TID 0000.0001) %MON dynstat_uvel_sd              =   1.8426292067393E-02
(PID.TID 0000.0001) %MON dynstat_uvel_del2            =   5.1418341418181E-03
(PID.TID 0000.0001) %MON dynstat_vvel_max             =   1.6988862551319E-01
(PID.TID 0000.0001) %MON dynstat_vvel_min             =  -1.4524916169360E-01
(PID.TID 0000.0001) %MON dynstat_vvel_mean            =  -2.0900161978115E-03
(PID.TID 0000.0001) %MON dynstat_vvel_sd              =   1.5173031882661E-02
(PID.TID 0000.0001) %MON dynstat_vvel_del2            =   4.7108673032892E-03
(PID.TID 0000.0001) %MON dynstat_wvel_max             =   3.4995850823404E-04
(PID.TID 0000.0001) %MON dynstat_wvel_min             =  -2.0727822145532E-04
(PID.TID 0000.0001) %MON dynstat_wvel_mean            =   5.4642194317727E-23
(PID.TID 0000.0001) %MON dynstat_wvel_sd              =   2.5861024664819E-05
(PID.TID 0000.0001) %MON dynstat_wvel_del2            =   1.0258136833829E-05
(PID.TID 0000.0001) %MON dynstat_theta_max            =   2.9777679262482E+01
(PID.TID 0000.0001) %MON dynstat_theta_min            =  -1.9606758403209E+00
(PID.TID 0000.0001) %MON dynstat_theta_mean           =   3.5920221788085E+00
(PID.TID 0000.0001) %MON dynstat_theta_sd             =   4.3412684896757E+00
(PID.TID 0000.0001) %MON dynstat_theta_del2           =   1.3056883959102E-01
(PID.TID 0000.0001) %MON dynstat_salt_max             =   3.7390377814593E+01
(PID.TID 0000.0001) %MON dynstat_salt_min             =   2.9789784279262E+01
(PID.TID 0000.0001) %MON dynstat_salt_mean            =   3.4716191817580E+01
(PID.TID 0000.0001) %MON dynstat_salt_sd              =   2.9392670737707E-01
(PID.TID 0000.0001) %MON dynstat_salt_del2            =   2.3861568230238E-02
(PID.TID 0000.0001) %MON advcfl_uvel_max              =   3.7672538744518E-02
(PID.TID 0000.0001) %MON advcfl_vvel_max              =   1.6503317625618E-02
(PID.TID 0000.0001) %MON advcfl_wvel_max              =   1.4718383070922E-01
(PID.TID 0000.0001) %MON advcfl_W_hf_max              =   1.3220220370379E-01
(PID.TID 0000.0001) %MON pe_b_mean                    =   2.2736688591282E-04
(PID.TID 0000.0001) %MON ke_max                       =   1.9461174818789E-02
(PID.TID 0000.0001) %MON ke_mean                      =   2.5960920953049E-04
(PID.TID 0000.0001) %MON ke_vol                       =   1.3226782436723E+18
(PID.TID 0000.0001) %MON vort_r_min                   =  -1.1047051683601E-06
(PID.TID 0000.0001) %MON vort_r_max                   =   7.0703376532861E-07
(PID.TID 0000.0001) %MON vort_a_mean                  =  -2.5205768382151E-05
(PID.TID 0000.0001) %MON vort_a_sd                    =   7.3403323718860E-05
(PID.TID 0000.0001) %MON vort_p_mean                  =  -3.1758668283271E-05
(PID.TID 0000.0001) %MON vort_p_sd                    =   1.3126311738967E-04
(PID.TID 0000.0001) %MON surfExpan_theta_mean         =   1.2534717880729E-05
(PID.TID 0000.0001) %MON surfExpan_salt_mean          =   4.1247802614643E-07
(PID.TID 0000.0001) // =======================================================
(PID.TID 0000.0001) // End MONITOR dynamic field statistics
(PID.TID 0000.0001) // =======================================================
time,SST,SSS,fu,fv,Q,E-P,i0,i1,a,b =   2.7648E+06  1.1393E-01  3.4548E+01 -2.3621E-02 -3.4805E-02  2.5144E+02  0.0000E+00     1     2  5.6667E-01  4.3333E-01
time,fu0,fu1,fu =   2.7648E+06 -3.5633E-02 -1.4435E-02 -2.3621E-02  5.6667E-01  4.3333E-01
 cg2d: Sum(rhs),rhsMax =   3.67900154785161E-13  1.23029136630110E+01
(PID.TID 0000.0001)                    cg2d_init_res =    3.07221085385856E-01
(PID.TID 0000.0001)                       cg2d_iters =    24
(PID.TID 0000.0001)                         cg2d_res =    4.72426197679311E-14
(PID.TID 0000.0001) // =======================================================
(PID.TID 0000.0001) // Begin MONITOR dynamic field statistics
(PID.TID 0000.0001) // =======================================================
(PID.TID 0000.0001) %MON time_tsnumber                =                    65
(PID.TID 0000.0001) %MON time_secondsf                =   2.8080000000000E+06
(PID.TID 0000.0001) %MON dynstat_eta_max              =   1.4542402583435E+00
(PID.TID 0000.0001) %MON dynstat_eta_min              =  -1.3379304826964E+00
(PID.TID 0000.0001) %MON dynstat_eta_mean             =  -1.3322834448487E-16
(PID.TID 0000.0001) %MON dynstat_eta_sd               =   4.2289205538629E-01
(PID.TID 0000.0001) %MON dynstat_eta_del2             =   1.9834672614597E-02
(PID.TID 0000.0001) %MON dynstat_uvel_max             =   2.0385089097728E-01
(PID.TID 0000.0001) %MON dynstat_uvel_min             =  -1.7867979369045E-01
(PID.TID 0000.0001) %MON dynstat_uvel_mean            =  -1.8095095799964E-04
(PID.TID 0000.0001) %MON dynstat_uvel_sd              =   1.8626068539943E-02
(PID.TID 0000.0001) %MON dynstat_uvel_del2            =   5.1298558913935E-03
(PID.TID 0000.0001) %MON dynstat_vvel_max             =   1.7292136102924E-01
(PID.TID 0000.0001) %MON dynstat_vvel_min             =  -1.4561088259652E-01
(PID.TID 0000.0001) %MON dynstat_vvel_mean            =  -2.1378381398893E-03
(PID.TID 0000.0001) %MON dynstat_vvel_sd              =   1.5179654562742E-02
(PID.TID 0000.0001) %MON dynstat_vvel_del2            =   4.6932741941453E-03
(PID.TID 0000.0001) %MON dynstat_wvel_max             =   3.5291165753411E-04
(PID.TID 0000.0001) %MON dynstat_wvel_min             =  -2.1148387751386E-04
(PID.TID 0000.0001) %MON dynstat_wvel_mean            =  -2.6696005059593E-22
(PID.TID 0000.0001) %MON dynstat_wvel_sd              =   2.5669947148171E-05
(PID.TID 0000.0001) %MON dynstat_wvel_del2            =   1.0162318326611E-05
(PID.TID 0000.0001) %MON dynstat_theta_max            =   2.9733636893944E+01
(PID.TID 0000.0001) %MON dynstat_theta_min            =  -1.9603754023160E+00
(PID.TID 0000.0001) %MON dynstat_theta_mean           =   3.5919180555827E+00
(PID.TID 0000.0001) %MON dynstat_theta_sd             =   4.3409996568654E+00
(PID.TID 0000.0001) %MON dynstat_theta_del2           =   1.3041196874479E-01
(PID.TID 0000.0001) %MON dynstat_salt_max             =   3.7390656914063E+01
(PID.TID 0000.0001) %MON dynstat_salt_min             =   2.9788328476636E+01
(PID.TID 0000.0001) %MON dynstat_salt_mean            =   3.4716183734403E+01
(PID.TID 0000.0001) %MON dynstat_salt_sd              =   2.9394886462568E-01
(PID.TID 0000.0001) %MON dynstat_salt_del2            =   2.3822183702794E-02
(PID.TID 0000.0001) %MON advcfl_uvel_max              =   3.7368861083930E-02
(PID.TID 0000.0001) %MON advcfl_vvel_max              =   1.6797923561388E-02
(PID.TID 0000.0001) %MON advcfl_wvel_max              =   1.2111797162891E-01
(PID.TID 0000.0001) %MON advcfl_W_hf_max              =   1.0807192104871E-01
(PID.TID 0000.0001) %MON pe_b_mean                    =   2.2884438081915E-04
(PID.TID 0000.0001) %MON ke_max                       =   1.9223527124744E-02
(PID.TID 0000.0001) %MON ke_mean                      =   2.6312894935237E-04
(PID.TID 0000.0001) %MON ke_vol                       =   1.3226782436723E+18
(PID.TID 0000.0001) %MON vort_r_min                   =  -1.1030553872001E-06
(PID.TID 0000.0001) %MON vort_r_max                   =   7.0359206148133E-07
(PID.TID 0000.0001) %MON vort_a_mean                  =  -2.5205768344929E-05
(PID.TID 0000.0001) %MON vort_a_sd                    =   7.3403344280123E-05
(PID.TID 0000.0001) %MON vort_p_mean                  =  -3.1758668236372E-05
(PID.TID 0000.0001) %MON vort_p_sd                    =   1.3126307689372E-04
(PID.TID 0000.0001) %MON surfExpan_theta_mean         =   1.3058348968658E-05
(PID.TID 0000.0001) %MON surfExpan_salt_mean          =   5.9275498478281E-07
(PID.TID 0000.0001) // =======================================================
(PID.TID 0000.0001) // End MONITOR dynamic field statistics
(PID.TID 0000.0001) // =======================================================
time,SST,SSS,fu,fv,Q,E-P,i0,i1,a,b =   2.8080E+06  8.9094E-02  3.4543E+01 -2.3267E-02 -3.4144E-02  2.5102E+02  0.0000E+00     1     2  5.8333E-01  4.1667E-01
time,fu0,fu1,fu =   2.8080E+06 -3.5633E-02 -1.4435E-02 -2.3267E-02  5.8333E-01  4.1667E-01
 cg2d: Sum(rhs),rhsMax =  -1.96662131024539E-13  1.21609677392953E+01
(PID.TID 0000.0001)                    cg2d_init_res =    3.10461835414992E-01
(PID.TID 0000.0001)                       cg2d_iters =    24
(PID.TID 0000.0001)                         cg2d_res =    3.88300735696220E-14
(PID.TID 0000.0001) // =======================================================
(PID.TID 0000.0001) // Begin MONITOR dynamic field statistics
(PID.TID 0000.0001) // =======================================================
(PID.TID 0000.0001) %MON time_tsnumber                =                    66
(PID.TID 0000.0001) %MON time_secondsf                =   2.8512000000000E+06
(PID.TID 0000.0001) %MON dynstat_eta_max              =   1.4377616314639E+00
(PID.TID 0000.0001) %MON dynstat_eta_min              =  -1.3655176065528E+00
(PID.TID 0000.0001) %MON dynstat_eta_mean             =   7.5675896293220E-17
(PID.TID 0000.0001) %MON dynstat_eta_sd               =   4.2424336084761E-01
(PID.TID 0000.0001) %MON dynstat_eta_del2             =   1.9832241689002E-02
(PID.TID 0000.0001) %MON dynstat_uvel_max             =   2.0054285042771E-01
(PID.TID 0000.0001) %MON dynstat_uvel_min             =  -1.7579968260146E-01
(PID.TID 0000.0001) %MON dynstat_uvel_mean            =  -7.5553398442925E-05
(PID.TID 0000.0001) %MON dynstat_uvel_sd              =   1.8811006192998E-02
(PID.TID 0000.0001) %MON dynstat_uvel_del2            =   5.1193003986938E-03
(PID.TID 0000.0001) %MON dynstat_vvel_max             =   1.7561326414735E-01
(PID.TID 0000.0001) %MON dynstat_vvel_min             =  -1.4693264667836E-01
(PID.TID 0000.0001) %MON dynstat_vvel_mean            =  -2.1633089844488E-03
(PID.TID 0000.0001) %MON dynstat_vvel_sd              =   1.5191227387139E-02
(PID.TID 0000.0001) %MON dynstat_vvel_del2            =   4.6775977190462E-03
(PID.TID 0000.0001) %MON dynstat_wvel_max             =   3.5572506223589E-04
(PID.TID 0000.0001) %MON dynstat_wvel_min             =  -2.1749036986993E-04
(PID.TID 0000.0001) %MON dynstat_wvel_mean            =  -8.7116167589472E-22
(PID.TID 0000.0001) %MON dynstat_wvel_sd              =   2.5493669237149E-05
(PID.TID 0000.0001) %MON dynstat_wvel_del2            =   1.0076283351630E-05
(PID.TID 0000.0001) %MON dynstat_theta_max            =   2.9699318252044E+01
(PID.TID 0000.0001) %MON dynstat_theta_min            =  -1.9598446651293E+00
(PID.TID 0000.0001) %MON dynstat_theta_mean           =   3.5918083355124E+00
(PID.TID 0000.0001) %MON dynstat_theta_sd             =   4.3407156428457E+00
(PID.TID 0000.0001) %MON dynstat_theta_del2           =   1.3024409290867E-01
(PID.TID 0000.0001) %MON dynstat_salt_max             =   3.7390942590802E+01
(PID.TID 0000.0001) %MON dynstat_salt_min             =   2.9786797146076E+01
(PID.TID 0000.0001) %MON dynstat_salt_mean            =   3.4716173851488E+01
(PID.TID 0000.0001) %MON dynstat_salt_sd              =   2.9396613827107E-01
(PID.TID 0000.0001) %MON dynstat_salt_del2            =   2.3785219946081E-02
(PID.TID 0000.0001) %MON advcfl_uvel_max              =   3.6762448685316E-02
(PID.TID 0000.0001) %MON advcfl_vvel_max              =   1.7059420362844E-02
(PID.TID 0000.0001) %MON advcfl_wvel_max              =   1.0320076974088E-01
(PID.TID 0000.0001) %MON advcfl_W_hf_max              =   1.0377037721633E-01
(PID.TID 0000.0001) %MON pe_b_mean                    =   2.3030921198287E-04
(PID.TID 0000.0001) %MON ke_max                       =   1.8949991123945E-02
(PID.TID 0000.0001) %MON ke_mean                      =   2.6646910593189E-04
(PID.TID 0000.0001) %MON ke_vol                       =   1.3226782436723E+18
(PID.TID 0000.0001) %MON vort_r_min                   =  -1.0997215230539E-06
(PID.TID 0000.0001) %MON vort_r_max                   =   6.9886585082441E-07
(PID.TID 0000.0001) %MON vort_a_mean                  =  -2.5205768306277E-05
(PID.TID 0000.0001) %MON vort_a_sd                    =   7.3403363392904E-05
(PID.TID 0000.0001) %MON vort_p_mean                  =  -3.1758668187671E-05
(PID.TID 0000.0001) %MON vort_p_sd                    =   1.3126303649802E-04
(PID.TID 0000.0001) %MON surfExpan_theta_mean         =   1.3556379745688E-05
(PID.TID 0000.0001) %MON surfExpan_salt_mean          =   7.5965597086008E-07
(PID.TID 0000.0001) // =======================================================
(PID.TID 0000.0001) // End MONITOR dynamic field statistics
(PID.TID 0000.0001) // =======================================================
time,SST,SSS,fu,fv,Q,E-P,i0,i1,a,b =   2.8512E+06  6.4256E-02  3.4538E+01 -2.2914E-02 -3.3484E-02  2.5060E+02  0.0000E+00     1     2  6.0000E-01  4.0000E-01
time,fu0,fu1,fu =   2.8512E+06 -3.5633E-02 -1.4435E-02 -2.2914E-02  6.0000E-01  4.0000E-01
 cg2d: Sum(rhs),rhsMax =   4.46587211655469E-14  1.18939191149078E+01
(PID.TID 0000.0001)                    cg2d_init_res =    3.21493076821708E-01
(PID.TID 0000.0001)                       cg2d_iters =    24
(PID.TID 0000.0001)                         cg2d_res =    4.58719712344712E-14
(PID.TID 0000.0001) // =======================================================
(PID.TID 0000.0001) // Begin MONITOR dynamic field statistics
(PID.TID 0000.0001) // =======================================================
(PID.TID 0000.0001) %MON time_tsnumber                =                    67
(PID.TID 0000.0001) %MON time_secondsf                =   2.8944000000000E+06
(PID.TID 0000.0001) %MON dynstat_eta_max              =   1.4066956599134E+00
(PID.TID 0000.0001) %MON dynstat_eta_min              =  -1.3880927537533E+00
(PID.TID 0000.0001) %MON dynstat_eta_mean             =   5.5268362518255E-17
(PID.TID 0000.0001) %MON dynstat_eta_sd               =   4.2557306017485E-01
(PID.TID 0000.0001) %MON dynstat_eta_del2             =   1.9804772399702E-02
(PID.TID 0000.0001) %MON dynstat_uvel_max             =   1.9562543603295E-01
(PID.TID 0000.0001) %MON dynstat_uvel_min             =  -1.7278029946948E-01
(PID.TID 0000.0001) %MON dynstat_uvel_mean            =   2.2985260732488E-05
(PID.TID 0000.0001) %MON dynstat_uvel_sd              =   1.8975311465698E-02
(PID.TID 0000.0001) %MON dynstat_uvel_del2            =   5.1096808519438E-03
(PID.TID 0000.0001) %MON dynstat_vvel_max             =   1.7795511303769E-01
(PID.TID 0000.0001) %MON dynstat_vvel_min             =  -1.4879467209505E-01
(PID.TID 0000.0001) %MON dynstat_vvel_mean            =  -2.1679482140736E-03
(PID.TID 0000.0001) %MON dynstat_vvel_sd              =   1.5209786498797E-02
(PID.TID 0000.0001) %MON dynstat_vvel_del2            =   4.6646027209714E-03
(PID.TID 0000.0001) %MON dynstat_wvel_max             =   3.5840526988288E-04
(PID.TID 0000.0001) %MON dynstat_wvel_min             =  -2.2538061888931E-04
(PID.TID 0000.0001) %MON dynstat_wvel_mean            =  -3.2919105041092E-22
(PID.TID 0000.0001) %MON dynstat_wvel_sd              =   2.5333197452658E-05
(PID.TID 0000.0001) %MON dynstat_wvel_del2            =   9.9988338383994E-06
(PID.TID 0000.0001) %MON dynstat_theta_max            =   2.9701264033741E+01
(PID.TID 0000.0001) %MON dynstat_theta_min            =  -1.9590768640291E+00
(PID.TID 0000.0001) %MON dynstat_theta_mean           =   3.5916935667348E+00
(PID.TID 0000.0001) %MON dynstat_theta_sd             =   4.3404167173729E+00
(PID.TID 0000.0001) %MON dynstat_theta_del2           =   1.3006754239282E-01
(PID.TID 0000.0001) %MON dynstat_salt_max             =   3.7391239057261E+01
(PID.TID 0000.0001) %MON dynstat_salt_min             =   2.9785193399526E+01
(PID.TID 0000.0001) %MON dynstat_salt_mean            =   3.4716162417940E+01
(PID.TID 0000.0001) %MON dynstat_salt_sd              =   2.9397893032264E-01
(PID.TID 0000.0001) %MON dynstat_salt_del2            =   2.3750723196875E-02
(PID.TID 0000.0001) %MON advcfl_uvel_max              =   3.5861014433404E-02
(PID.TID 0000.0001) %MON advcfl_vvel_max              =   1.7286912203170E-02
(PID.TID 0000.0001) %MON advcfl_wvel_max              =   1.1758841590816E-01
(PID.TID 0000.0001) %MON advcfl_W_hf_max              =   1.1884110094613E-01
(PID.TID 0000.0001) %MON pe_b_mean                    =   2.3175518359868E-04
(PID.TID 0000.0001) %MON ke_max                       =   1.8641792217548E-02
(PID.TID 0000.0001) %MON ke_mean                      =   2.6954968624435E-04
(PID.TID 0000.0001) %MON ke_vol                       =   1.3226782436723E+18
(PID.TID 0000.0001) %MON vort_r_min                   =  -1.0946760430805E-06
(PID.TID 0000.0001) %MON vort_r_max                   =   6.9286640296346E-07
(PID.TID 0000.0001) %MON vort_a_mean                  =  -2.5205768266577E-05
(PID.TID 0000.0001) %MON vort_a_sd                    =   7.3403381056416E-05
(PID.TID 0000.0001) %MON vort_p_mean                  =  -3.1758668137650E-05
(PID.TID 0000.0001) %MON vort_p_sd                    =   1.3126299718661E-04
(PID.TID 0000.0001) %MON surfExpan_theta_mean         =   1.4015553683103E-05
(PID.TID 0000.0001) %MON surfExpan_salt_mean          =   9.0867647942853E-07
(PID.TID 0000.0001) // =======================================================
(PID.TID 0000.0001) // End MONITOR dynamic field statistics
(PID.TID 0000.0001) // =======================================================
time,SST,SSS,fu,fv,Q,E-P,i0,i1,a,b =   2.8944E+06  3.9418E-02  3.4534E+01 -2.2561E-02 -3.2824E-02  2.5018E+02  0.0000E+00     1     2  6.1667E-01  3.8333E-01
time,fu0,fu1,fu =   2.8944E+06 -3.5633E-02 -1.4435E-02 -2.2561E-02  6.1667E-01  3.8333E-01
 cg2d: Sum(rhs),rhsMax =   7.97556465315097E-14  1.15154297544190E+01
(PID.TID 0000.0001)                    cg2d_init_res =    3.39778986489333E-01
(PID.TID 0000.0001)                       cg2d_iters =    24
(PID.TID 0000.0001)                         cg2d_res =    5.74832805834050E-14
(PID.TID 0000.0001) // =======================================================
(PID.TID 0000.0001) // Begin MONITOR dynamic field statistics
(PID.TID 0000.0001) // =======================================================
(PID.TID 0000.0001) %MON time_tsnumber                =                    68
(PID.TID 0000.0001) %MON time_secondsf                =   2.9376000000000E+06
(PID.TID 0000.0001) %MON dynstat_eta_max              =   1.3626275847403E+00
(PID.TID 0000.0001) %MON dynstat_eta_min              =  -1.4048968131651E+00
(PID.TID 0000.0001) %MON dynstat_eta_mean             =   8.5078639875041E-17
(PID.TID 0000.0001) %MON dynstat_eta_sd               =   4.2688883218934E-01
(PID.TID 0000.0001) %MON dynstat_eta_del2             =   1.9752777412105E-02
(PID.TID 0000.0001) %MON dynstat_uvel_max             =   1.8916598558167E-01
(PID.TID 0000.0001) %MON dynstat_uvel_min             =  -1.6966049549670E-01
(PID.TID 0000.0001) %MON dynstat_uvel_mean            =   1.1487602203516E-04
(PID.TID 0000.0001) %MON dynstat_uvel_sd              =   1.9113900775541E-02
(PID.TID 0000.0001) %MON dynstat_uvel_del2            =   5.1014022087171E-03
(PID.TID 0000.0001) %MON dynstat_vvel_max             =   1.7993808618940E-01
(PID.TID 0000.0001) %MON dynstat_vvel_min             =  -1.5045538824163E-01
(PID.TID 0000.0001) %MON dynstat_vvel_mean            =  -2.1535017476314E-03
(PID.TID 0000.0001) %MON dynstat_vvel_sd              =   1.5236031345160E-02
(PID.TID 0000.0001) %MON dynstat_vvel_del2            =   4.6554270792517E-03
(PID.TID 0000.0001) %MON dynstat_wvel_max             =   3.6095554146869E-04
(PID.TID 0000.0001) %MON dynstat_wvel_min             =  -2.3300937122875E-04
(PID.TID 0000.0001) %MON dynstat_wvel_mean            =  -3.9160031763830E-22
(PID.TID 0000.0001) %MON dynstat_wvel_sd              =   2.5187130847260E-05
(PID.TID 0000.0001) %MON dynstat_wvel_del2            =   9.9305898538071E-06
(PID.TID 0000.0001) %MON dynstat_theta_max            =   2.9703577843689E+01
(PID.TID 0000.0001) %MON dynstat_theta_min            =  -1.9580676689696E+00
(PID.TID 0000.0001) %MON dynstat_theta_mean           =   3.5915743993348E+00
(PID.TID 0000.0001) %MON dynstat_theta_sd             =   4.3401011702797E+00
(PID.TID 0000.0001) %MON dynstat_theta_del2           =   1.2989673554434E-01
(PID.TID 0000.0001) %MON dynstat_salt_max             =   3.7391547953339E+01
(PID.TID 0000.0001) %MON dynstat_salt_min             =   2.9783521665126E+01
(PID.TID 0000.0001) %MON dynstat_salt_mean            =   3.4716149706536E+01
(PID.TID 0000.0001) %MON dynstat_salt_sd              =   2.9398490734596E-01
(PID.TID 0000.0001) %MON dynstat_salt_del2            =   2.3712927056931E-02
(PID.TID 0000.0001) %MON advcfl_uvel_max              =   3.4676902333451E-02
(PID.TID 0000.0001) %MON advcfl_vvel_max              =   1.7479542143326E-02
(PID.TID 0000.0001) %MON advcfl_wvel_max              =   1.2992977465144E-01
(PID.TID 0000.0001) %MON advcfl_W_hf_max              =   1.3165139314453E-01
(PID.TID 0000.0001) %MON pe_b_mean                    =   2.3319046421283E-04
(PID.TID 0000.0001) %MON ke_max                       =   1.8418870456999E-02
(PID.TID 0000.0001) %MON ke_mean                      =   2.7228436033337E-04
(PID.TID 0000.0001) %MON ke_vol                       =   1.3226782436723E+18
(PID.TID 0000.0001) %MON vort_r_min                   =  -1.0879015285594E-06
(PID.TID 0000.0001) %MON vort_r_max                   =   6.8560795368400E-07
(PID.TID 0000.0001) %MON vort_a_mean                  =  -2.5205768226265E-05
(PID.TID 0000.0001) %MON vort_a_sd                    =   7.3403397301938E-05
(PID.TID 0000.0001) %MON vort_p_mean                  =  -3.1758668086858E-05
(PID.TID 0000.0001) %MON vort_p_sd                    =   1.3126295986965E-04
(PID.TID 0000.0001) %MON surfExpan_theta_mean         =   1.4408154663805E-05
(PID.TID 0000.0001) %MON surfExpan_salt_mean          =   1.0315071511140E-06
(PID.TID 0000.0001) // =======================================================
(PID.TID 0000.0001) // End MONITOR dynamic field statistics
(PID.TID 0000.0001) // =======================================================
time,SST,SSS,fu,fv,Q,E-P,i0,i1,a,b =   2.9376E+06  1.4580E-02  3.4529E+01 -2.2207E-02 -3.2163E-02  2.4975E+02  0.0000E+00     1     2  6.3333E-01  3.6667E-01
time,fu0,fu1,fu =   2.9376E+06 -3.5633E-02 -1.4435E-02 -2.2207E-02  6.3333E-01  3.6667E-01
 cg2d: Sum(rhs),rhsMax =  -1.95565785787721E-13  1.10412059104417E+01
(PID.TID 0000.0001)                    cg2d_init_res =    3.64462187542087E-01
(PID.TID 0000.0001)                       cg2d_iters =    24
(PID.TID 0000.0001)                         cg2d_res =    6.66345062902201E-14
(PID.TID 0000.0001) // =======================================================
(PID.TID 0000.0001) // Begin MONITOR dynamic field statistics
(PID.TID 0000.0001) // =======================================================
(PID.TID 0000.0001) %MON time_tsnumber                =                    69
(PID.TID 0000.0001) %MON time_secondsf                =   2.9808000000000E+06
(PID.TID 0000.0001) %MON dynstat_eta_max              =   1.3073815858080E+00
(PID.TID 0000.0001) %MON dynstat_eta_min              =  -1.4155236121716E+00
(PID.TID 0000.0001) %MON dynstat_eta_mean             =   1.3403525464490E-16
(PID.TID 0000.0001) %MON dynstat_eta_sd               =   4.2820889869806E-01
(PID.TID 0000.0001) %MON dynstat_eta_del2             =   1.9657956115803E-02
(PID.TID 0000.0001) %MON dynstat_uvel_max             =   1.8660353466533E-01
(PID.TID 0000.0001) %MON dynstat_uvel_min             =  -1.6969136285957E-01
(PID.TID 0000.0001) %MON dynstat_uvel_mean            =   2.0043442346144E-04
(PID.TID 0000.0001) %MON dynstat_uvel_sd              =   1.9222604297794E-02
(PID.TID 0000.0001) %MON dynstat_uvel_del2            =   5.0947195326604E-03
(PID.TID 0000.0001) %MON dynstat_vvel_max             =   1.8155388056657E-01
(PID.TID 0000.0001) %MON dynstat_vvel_min             =  -1.5191169572246E-01
(PID.TID 0000.0001) %MON dynstat_vvel_mean            =  -2.1218933577405E-03
(PID.TID 0000.0001) %MON dynstat_vvel_sd              =   1.5269331682724E-02
(PID.TID 0000.0001) %MON dynstat_vvel_del2            =   4.6490419323152E-03
(PID.TID 0000.0001) %MON dynstat_wvel_max             =   3.6337662328060E-04
(PID.TID 0000.0001) %MON dynstat_wvel_min             =  -2.3934972943665E-04
(PID.TID 0000.0001) %MON dynstat_wvel_mean            =  -1.4856706377875E-22
(PID.TID 0000.0001) %MON dynstat_wvel_sd              =   2.5051937473294E-05
(PID.TID 0000.0001) %MON dynstat_wvel_del2            =   9.8681687571622E-06
(PID.TID 0000.0001) %MON dynstat_theta_max            =   2.9706284660763E+01
(PID.TID 0000.0001) %MON dynstat_theta_min            =  -1.9568141952877E+00
(PID.TID 0000.0001) %MON dynstat_theta_mean           =   3.5914517624630E+00
(PID.TID 0000.0001) %MON dynstat_theta_sd             =   4.3397740748636E+00
(PID.TID 0000.0001) %MON dynstat_theta_del2           =   1.2971287162326E-01
(PID.TID 0000.0001) %MON dynstat_salt_max             =   3.7391868448916E+01
(PID.TID 0000.0001) %MON dynstat_salt_min             =   2.9781787517477E+01
(PID.TID 0000.0001) %MON dynstat_salt_mean            =   3.4716136086546E+01
(PID.TID 0000.0001) %MON dynstat_salt_sd              =   2.9398816102286E-01
(PID.TID 0000.0001) %MON dynstat_salt_del2            =   2.3679880782874E-02
(PID.TID 0000.0001) %MON advcfl_uvel_max              =   3.3226297633622E-02
(PID.TID 0000.0001) %MON advcfl_vvel_max              =   1.7636503609955E-02
(PID.TID 0000.0001) %MON advcfl_wvel_max              =   1.4049410419314E-01
(PID.TID 0000.0001) %MON advcfl_W_hf_max              =   1.4191448095172E-01
(PID.TID 0000.0001) %MON pe_b_mean                    =   2.3463488179721E-04
(PID.TID 0000.0001) %MON ke_max                       =   1.8358787530010E-02
(PID.TID 0000.0001) %MON ke_mean                      =   2.7458527509318E-04
(PID.TID 0000.0001) %MON ke_vol                       =   1.3226782436723E+18
(PID.TID 0000.0001) %MON vort_r_min                   =  -1.0794037784458E-06
(PID.TID 0000.0001) %MON vort_r_max                   =   6.7710802284383E-07
(PID.TID 0000.0001) %MON vort_a_mean                  =  -2.5205768185821E-05
(PID.TID 0000.0001) %MON vort_a_sd                    =   7.3403412186137E-05
(PID.TID 0000.0001) %MON vort_p_mean                  =  -3.1758668035899E-05
(PID.TID 0000.0001) %MON vort_p_sd                    =   1.3126292533607E-04
(PID.TID 0000.0001) %MON surfExpan_theta_mean         =   1.4756042145892E-05
(PID.TID 0000.0001) %MON surfExpan_salt_mean          =   1.1334711387546E-06
(PID.TID 0000.0001) // =======================================================
(PID.TID 0000.0001) // End MONITOR dynamic field statistics
(PID.TID 0000.0001) // =======================================================
time,SST,SSS,fu,fv,Q,E-P,i0,i1,a,b =   2.9808E+06 -1.0258E-02  3.4524E+01 -2.1854E-02 -3.1503E-02  2.4933E+02  0.0000E+00     1     2  6.5000E-01  3.5000E-01
time,fu0,fu1,fu =   2.9808E+06 -3.5633E-02 -1.4435E-02 -2.1854E-02  6.5000E-01  3.5000E-01
 cg2d: Sum(rhs),rhsMax =   1.24400489909249E-13  1.04884334825395E+01
(PID.TID 0000.0001)                    cg2d_init_res =    3.94529876805886E-01
(PID.TID 0000.0001)                       cg2d_iters =    24
(PID.TID 0000.0001)                         cg2d_res =    7.47434064432622E-14
(PID.TID 0000.0001) // =======================================================
(PID.TID 0000.0001) // Begin MONITOR dynamic field statistics
(PID.TID 0000.0001) // =======================================================
(PID.TID 0000.0001) %MON time_tsnumber                =                    70
(PID.TID 0000.0001) %MON time_secondsf                =   3.0240000000000E+06
(PID.TID 0000.0001) %MON dynstat_eta_max              =   1.2429553125405E+00
(PID.TID 0000.0001) %MON dynstat_eta_min              =  -1.4199301256598E+00
(PID.TID 0000.0001) %MON dynstat_eta_mean             =   7.8117731698932E-17
(PID.TID 0000.0001) %MON dynstat_eta_sd               =   4.2955783953363E-01
(PID.TID 0000.0001) %MON dynstat_eta_del2             =   1.9560100049125E-02
(PID.TID 0000.0001) %MON dynstat_uvel_max             =   1.8460468885554E-01
(PID.TID 0000.0001) %MON dynstat_uvel_min             =  -1.6954834026097E-01
(PID.TID 0000.0001) %MON dynstat_uvel_mean            =   2.8004432511871E-04
(PID.TID 0000.0001) %MON dynstat_uvel_sd              =   1.9298301749467E-02
(PID.TID 0000.0001) %MON dynstat_uvel_del2            =   5.0883552895430E-03
(PID.TID 0000.0001) %MON dynstat_vvel_max             =   1.8279488126835E-01
(PID.TID 0000.0001) %MON dynstat_vvel_min             =  -1.5316326157698E-01
(PID.TID 0000.0001) %MON dynstat_vvel_mean            =  -2.0751667961538E-03
(PID.TID 0000.0001) %MON dynstat_vvel_sd              =   1.5307926070109E-02
(PID.TID 0000.0001) %MON dynstat_vvel_del2            =   4.6456657955833E-03
(PID.TID 0000.0001) %MON dynstat_wvel_max             =   3.6566803783977E-04
(PID.TID 0000.0001) %MON dynstat_wvel_min             =  -2.4433601432581E-04
(PID.TID 0000.0001) %MON dynstat_wvel_mean            =  -7.8303799927774E-22
(PID.TID 0000.0001) %MON dynstat_wvel_sd              =   2.4922578629723E-05
(PID.TID 0000.0001) %MON dynstat_wvel_del2            =   9.8128654835435E-06
(PID.TID 0000.0001) %MON dynstat_theta_max            =   2.9709395215589E+01
(PID.TID 0000.0001) %MON dynstat_theta_min            =  -1.9553075529497E+00
(PID.TID 0000.0001) %MON dynstat_theta_mean           =   3.5913261759057E+00
(PID.TID 0000.0001) %MON dynstat_theta_sd             =   4.3394364365278E+00
(PID.TID 0000.0001) %MON dynstat_theta_del2           =   1.2954565088393E-01
(PID.TID 0000.0001) %MON dynstat_salt_max             =   3.7392197524670E+01
(PID.TID 0000.0001) %MON dynstat_salt_min             =   2.9779997430230E+01
(PID.TID 0000.0001) %MON dynstat_salt_mean            =   3.4716121782280E+01
(PID.TID 0000.0001) %MON dynstat_salt_sd              =   2.9398740995368E-01
(PID.TID 0000.0001) %MON dynstat_salt_del2            =   2.3646930846977E-02
(PID.TID 0000.0001) %MON advcfl_uvel_max              =   3.2140128192880E-02
(PID.TID 0000.0001) %MON advcfl_vvel_max              =   1.7757056876505E-02
(PID.TID 0000.0001) %MON advcfl_wvel_max              =   1.4825598971277E-01
(PID.TID 0000.0001) %MON advcfl_W_hf_max              =   1.4941470686739E-01
(PID.TID 0000.0001) %MON pe_b_mean                    =   2.3611550074780E-04
(PID.TID 0000.0001) %MON ke_max                       =   1.8284901520038E-02
(PID.TID 0000.0001) %MON ke_mean                      =   2.7636916526874E-04
(PID.TID 0000.0001) %MON ke_vol                       =   1.3226782436723E+18
(PID.TID 0000.0001) %MON vort_r_min                   =  -1.0692128790780E-06
(PID.TID 0000.0001) %MON vort_r_max                   =   6.6738789730449E-07
(PID.TID 0000.0001) %MON vort_a_mean                  =  -2.5205768145873E-05
(PID.TID 0000.0001) %MON vort_a_sd                    =   7.3403425782237E-05
(PID.TID 0000.0001) %MON vort_p_mean                  =  -3.1758667985566E-05
(PID.TID 0000.0001) %MON vort_p_sd                    =   1.3126289422009E-04
(PID.TID 0000.0001) %MON surfExpan_theta_mean         =   1.5039806626928E-05
(PID.TID 0000.0001) %MON surfExpan_salt_mean          =   1.2083382358775E-06
(PID.TID 0000.0001) // =======================================================
(PID.TID 0000.0001) // End MONITOR dynamic field statistics
(PID.TID 0000.0001) // =======================================================
time,SST,SSS,fu,fv,Q,E-P,i0,i1,a,b =   3.0240E+06 -3.5096E-02  3.4519E+01 -2.1501E-02 -3.0843E-02  2.4891E+02  0.0000E+00     1     2  6.6667E-01  3.3333E-01
time,fu0,fu1,fu =   3.0240E+06 -3.5633E-02 -1.4435E-02 -2.1501E-02  6.6667E-01  3.3333E-01
 cg2d: Sum(rhs),rhsMax =   9.62285806593854E-14  9.87521726296269E+00
(PID.TID 0000.0001)                    cg2d_init_res =    4.28946599790725E-01
(PID.TID 0000.0001)                       cg2d_iters =    24
(PID.TID 0000.0001)                         cg2d_res =    8.22696193185605E-14
(PID.TID 0000.0001) // =======================================================
(PID.TID 0000.0001) // Begin MONITOR dynamic field statistics
(PID.TID 0000.0001) // =======================================================
(PID.TID 0000.0001) %MON time_tsnumber                =                    71
(PID.TID 0000.0001) %MON time_secondsf                =   3.0672000000000E+06
(PID.TID 0000.0001) %MON dynstat_eta_max              =   1.1714547766175E+00
(PID.TID 0000.0001) %MON dynstat_eta_min              =  -1.4184205847788E+00
(PID.TID 0000.0001) %MON dynstat_eta_mean             =   1.9370630709920E-16
(PID.TID 0000.0001) %MON dynstat_eta_sd               =   4.3096164625678E-01
(PID.TID 0000.0001) %MON dynstat_eta_del2             =   1.9434300088157E-02
(PID.TID 0000.0001) %MON dynstat_uvel_max             =   1.8984060696808E-01
(PID.TID 0000.0001) %MON dynstat_uvel_min             =  -1.6923699592983E-01
(PID.TID 0000.0001) %MON dynstat_uvel_mean            =   3.5412368123029E-04
(PID.TID 0000.0001) %MON dynstat_uvel_sd              =   1.9339002965182E-02
(PID.TID 0000.0001) %MON dynstat_uvel_del2            =   5.0814913885728E-03
(PID.TID 0000.0001) %MON dynstat_vvel_max             =   1.8365439573708E-01
(PID.TID 0000.0001) %MON dynstat_vvel_min             =  -1.5421197956789E-01
(PID.TID 0000.0001) %MON dynstat_vvel_mean            =  -2.0154263270773E-03
(PID.TID 0000.0001) %MON dynstat_vvel_sd              =   1.5349249148728E-02
(PID.TID 0000.0001) %MON dynstat_vvel_del2            =   4.6429289673847E-03
(PID.TID 0000.0001) %MON dynstat_wvel_max             =   3.6782925741948E-04
(PID.TID 0000.0001) %MON dynstat_wvel_min             =  -2.4791746100402E-04
(PID.TID 0000.0001) %MON dynstat_wvel_mean            =   5.7632392084643E-22
(PID.TID 0000.0001) %MON dynstat_wvel_sd              =   2.4793352350421E-05
(PID.TID 0000.0001) %MON dynstat_wvel_del2            =   9.7619514611442E-06
(PID.TID 0000.0001) %MON dynstat_theta_max            =   2.9712907426472E+01
(PID.TID 0000.0001) %MON dynstat_theta_min            =  -1.9532593172820E+00
(PID.TID 0000.0001) %MON dynstat_theta_mean           =   3.5911985501593E+00
(PID.TID 0000.0001) %MON dynstat_theta_sd             =   4.3390881822698E+00
(PID.TID 0000.0001) %MON dynstat_theta_del2           =   1.2935926607333E-01
(PID.TID 0000.0001) %MON dynstat_salt_max             =   3.7392530408458E+01
(PID.TID 0000.0001) %MON dynstat_salt_min             =   2.9778158523985E+01
(PID.TID 0000.0001) %MON dynstat_salt_mean            =   3.4716107146370E+01
(PID.TID 0000.0001) %MON dynstat_salt_sd              =   2.9398068676653E-01
(PID.TID 0000.0001) %MON dynstat_salt_del2            =   2.3608396960869E-02
(PID.TID 0000.0001) %MON advcfl_uvel_max              =   3.1539243026290E-02
(PID.TID 0000.0001) %MON advcfl_vvel_max              =   1.7840551814664E-02
(PID.TID 0000.0001) %MON advcfl_wvel_max              =   1.5307041972732E-01
(PID.TID 0000.0001) %MON advcfl_W_hf_max              =   1.5401323516550E-01
(PID.TID 0000.0001) %MON pe_b_mean                    =   2.3766128624093E-04
(PID.TID 0000.0001) %MON ke_max                       =   1.8195220852827E-02
(PID.TID 0000.0001) %MON ke_mean                      =   2.7756399152864E-04
(PID.TID 0000.0001) %MON ke_vol                       =   1.3226782436723E+18
(PID.TID 0000.0001) %MON vort_r_min                   =  -1.0573859701997E-06
(PID.TID 0000.0001) %MON vort_r_max                   =   6.5647318173099E-07
(PID.TID 0000.0001) %MON vort_a_mean                  =  -2.5205768106995E-05
(PID.TID 0000.0001) %MON vort_a_sd                    =   7.3403438174755E-05
(PID.TID 0000.0001) %MON vort_p_mean                  =  -3.1758667936580E-05
(PID.TID 0000.0001) %MON vort_p_sd                    =   1.3126286696543E-04
(PID.TID 0000.0001) %MON surfExpan_theta_mean         =   1.5258738050571E-05
(PID.TID 0000.0001) %MON surfExpan_salt_mean          =   1.2550985639115E-06
(PID.TID 0000.0001) // =======================================================
(PID.TID 0000.0001) // End MONITOR dynamic field statistics
(PID.TID 0000.0001) // =======================================================
time,SST,SSS,fu,fv,Q,E-P,i0,i1,a,b =   3.0672E+06 -5.9934E-02  3.4514E+01 -2.1147E-02 -3.0182E-02  2.4849E+02  0.0000E+00     1     2  6.8333E-01  3.1667E-01
time,fu0,fu1,fu =   3.0672E+06 -3.5633E-02 -1.4435E-02 -2.1147E-02  6.8333E-01  3.1667E-01
 cg2d: Sum(rhs),rhsMax =   3.65055208284559E-13  9.22003893985933E+00
(PID.TID 0000.0001)                    cg2d_init_res =    4.66718566391201E-01
(PID.TID 0000.0001)                       cg2d_iters =    24
(PID.TID 0000.0001)                         cg2d_res =    8.88302702962568E-14
(PID.TID 0000.0001) // =======================================================
(PID.TID 0000.0001) // Begin MONITOR dynamic field statistics
(PID.TID 0000.0001) // =======================================================
(PID.TID 0000.0001) %MON time_tsnumber                =                    72
(PID.TID 0000.0001) %MON time_secondsf                =   3.1104000000000E+06
(PID.TID 0000.0001) %MON dynstat_eta_max              =   1.0950313627242E+00
(PID.TID 0000.0001) %MON dynstat_eta_min              =  -1.4116085788180E+00
(PID.TID 0000.0001) %MON dynstat_eta_mean             =   8.3952699519668E-17
(PID.TID 0000.0001) %MON dynstat_eta_sd               =   4.3244297279288E-01
(PID.TID 0000.0001) %MON dynstat_eta_del2             =   1.9320422335370E-02
(PID.TID 0000.0001) %MON dynstat_uvel_max             =   1.9424974398705E-01
(PID.TID 0000.0001) %MON dynstat_uvel_min             =  -1.6876427457855E-01
(PID.TID 0000.0001) %MON dynstat_uvel_mean            =   4.2311038612602E-04
(PID.TID 0000.0001) %MON dynstat_uvel_sd              =   1.9343851976693E-02
(PID.TID 0000.0001) %MON dynstat_uvel_del2            =   5.0742253320036E-03
(PID.TID 0000.0001) %MON dynstat_vvel_max             =   1.8412679369500E-01
(PID.TID 0000.0001) %MON dynstat_vvel_min             =  -1.5506146512811E-01
(PID.TID 0000.0001) %MON dynstat_vvel_mean            =  -1.9448075331517E-03
(PID.TID 0000.0001) %MON dynstat_vvel_sd              =   1.5390329215849E-02
(PID.TID 0000.0001) %MON dynstat_vvel_del2            =   4.6422534634906E-03
(PID.TID 0000.0001) %MON dynstat_wvel_max             =   3.6986019793229E-04
(PID.TID 0000.0001) %MON dynstat_wvel_min             =  -2.5005890284156E-04
(PID.TID 0000.0001) %MON dynstat_wvel_mean            =   4.2783998101379E-22
(PID.TID 0000.0001) %MON dynstat_wvel_sd              =   2.4658897252810E-05
(PID.TID 0000.0001) %MON dynstat_wvel_del2            =   9.7098989512553E-06
(PID.TID 0000.0001) %MON dynstat_theta_max            =   2.9716810224870E+01
(PID.TID 0000.0001) %MON dynstat_theta_min            =  -1.9505732363587E+00
(PID.TID 0000.0001) %MON dynstat_theta_mean           =   3.5910694816293E+00
(PID.TID 0000.0001) %MON dynstat_theta_sd             =   4.3387369799235E+00
(PID.TID 0000.0001) %MON dynstat_theta_del2           =   1.2922974273797E-01
(PID.TID 0000.0001) %MON dynstat_salt_max             =   3.7392860998869E+01
(PID.TID 0000.0001) %MON dynstat_salt_min             =   2.9776278290763E+01
(PID.TID 0000.0001) %MON dynstat_salt_mean            =   3.4716092478133E+01
(PID.TID 0000.0001) %MON dynstat_salt_sd              =   2.9397187252867E-01
(PID.TID 0000.0001) %MON dynstat_salt_del2            =   2.3577473256277E-02
(PID.TID 0000.0001) %MON advcfl_uvel_max              =   3.1063107424216E-02
(PID.TID 0000.0001) %MON advcfl_vvel_max              =   1.7886441488100E-02
(PID.TID 0000.0001) %MON advcfl_wvel_max              =   1.5487259516298E-01
(PID.TID 0000.0001) %MON advcfl_W_hf_max              =   1.5565015409876E-01
(PID.TID 0000.0001) %MON pe_b_mean                    =   2.3929790065062E-04
(PID.TID 0000.0001) %MON ke_max                       =   1.8087722081364E-02
(PID.TID 0000.0001) %MON ke_mean                      =   2.7811493322217E-04
(PID.TID 0000.0001) %MON ke_vol                       =   1.3226782436723E+18
(PID.TID 0000.0001) %MON vort_r_min                   =  -1.0440079158726E-06
(PID.TID 0000.0001) %MON vort_r_max                   =   6.4439430187104E-07
(PID.TID 0000.0001) %MON vort_a_mean                  =  -2.5205768069785E-05
(PID.TID 0000.0001) %MON vort_a_sd                    =   7.3403449454550E-05
(PID.TID 0000.0001) %MON vort_p_mean                  =  -3.1758667889697E-05
(PID.TID 0000.0001) %MON vort_p_sd                    =   1.3126284389157E-04
(PID.TID 0000.0001) %MON surfExpan_theta_mean         =   1.5411646162094E-05
(PID.TID 0000.0001) %MON surfExpan_salt_mean          =   1.2733232869295E-06
(PID.TID 0000.0001) // =======================================================
(PID.TID 0000.0001) // End MONITOR dynamic field statistics
(PID.TID 0000.0001) // =======================================================
time,SST,SSS,fu,fv,Q,E-P,i0,i1,a,b =   3.1104E+06 -8.4772E-02  3.4509E+01 -2.0794E-02 -2.9522E-02  2.4807E+02  0.0000E+00     1     2  7.0000E-01  3.0000E-01
time,fu0,fu1,fu =   3.1104E+06 -3.5633E-02 -1.4435E-02 -2.0794E-02  7.0000E-01  3.0000E-01
 cg2d: Sum(rhs),rhsMax =  -1.06137321154165E-13  8.54125062611528E+00
(PID.TID 0000.0001)                    cg2d_init_res =    5.06880934530795E-01
(PID.TID 0000.0001)                       cg2d_iters =    24
(PID.TID 0000.0001)                         cg2d_res =    9.00637019899802E-14
(PID.TID 0000.0001) // =======================================================
(PID.TID 0000.0001) // Begin MONITOR dynamic field statistics
(PID.TID 0000.0001) // =======================================================
(PID.TID 0000.0001) %MON time_tsnumber                =                    73
(PID.TID 0000.0001) %MON time_secondsf                =   3.1536000000000E+06
(PID.TID 0000.0001) %MON dynstat_eta_max              =   1.0158228521803E+00
(PID.TID 0000.0001) %MON dynstat_eta_min              =  -1.4003622187295E+00
(PID.TID 0000.0001) %MON dynstat_eta_mean             =   2.5187113669771E-16
(PID.TID 0000.0001) %MON dynstat_eta_sd               =   4.3401690302744E-01
(PID.TID 0000.0001) %MON dynstat_eta_del2             =   1.9231602594926E-02
(PID.TID 0000.0001) %MON dynstat_uvel_max             =   1.9748084447191E-01
(PID.TID 0000.0001) %MON dynstat_uvel_min             =  -1.6813811475122E-01
(PID.TID 0000.0001) %MON dynstat_uvel_mean            =   4.8739714447242E-04
(PID.TID 0000.0001) %MON dynstat_uvel_sd              =   1.9313090586774E-02
(PID.TID 0000.0001) %MON dynstat_uvel_del2            =   5.0662643361148E-03
(PID.TID 0000.0001) %MON dynstat_vvel_max             =   1.8420768461483E-01
(PID.TID 0000.0001) %MON dynstat_vvel_min             =  -1.5571662816631E-01
(PID.TID 0000.0001) %MON dynstat_vvel_mean            =  -1.8653737527261E-03
(PID.TID 0000.0001) %MON dynstat_vvel_sd              =   1.5428185553520E-02
(PID.TID 0000.0001) %MON dynstat_vvel_del2            =   4.6413189572771E-03
(PID.TID 0000.0001) %MON dynstat_wvel_max             =   3.7176170771807E-04
(PID.TID 0000.0001) %MON dynstat_wvel_min             =  -2.5074138389713E-04
(PID.TID 0000.0001) %MON dynstat_wvel_mean            =  -5.5155164094439E-22
(PID.TID 0000.0001) %MON dynstat_wvel_sd              =   2.4514860072920E-05
(PID.TID 0000.0001) %MON dynstat_wvel_del2            =   9.6542566411762E-06
(PID.TID 0000.0001) %MON dynstat_theta_max            =   2.9721156214097E+01
(PID.TID 0000.0001) %MON dynstat_theta_min            =  -1.9473554112580E+00
(PID.TID 0000.0001) %MON dynstat_theta_mean           =   3.5909398886251E+00
(PID.TID 0000.0001) %MON dynstat_theta_sd             =   4.3383844332848E+00
(PID.TID 0000.0001) %MON dynstat_theta_del2           =   1.2911246960116E-01
(PID.TID 0000.0001) %MON dynstat_salt_max             =   3.7393182399990E+01
(PID.TID 0000.0001) %MON dynstat_salt_min             =   2.9774364316864E+01
(PID.TID 0000.0001) %MON dynstat_salt_mean            =   3.4716078102187E+01
(PID.TID 0000.0001) %MON dynstat_salt_sd              =   2.9395991276390E-01
(PID.TID 0000.0001) %MON dynstat_salt_del2            =   2.3550636879897E-02
(PID.TID 0000.0001) %MON advcfl_uvel_max              =   3.1054880937918E-02
(PID.TID 0000.0001) %MON advcfl_vvel_max              =   1.7894299392294E-02
(PID.TID 0000.0001) %MON advcfl_wvel_max              =   1.5367701791517E-01
(PID.TID 0000.0001) %MON advcfl_W_hf_max              =   1.5434348762055E-01
(PID.TID 0000.0001) %MON pe_b_mean                    =   2.4104297981961E-04
(PID.TID 0000.0001) %MON ke_max                       =   1.8253805020272E-02
(PID.TID 0000.0001) %MON ke_mean                      =   2.7798917704262E-04
(PID.TID 0000.0001) %MON ke_vol                       =   1.3226782436723E+18
(PID.TID 0000.0001) %MON vort_r_min                   =  -1.0291910500382E-06
(PID.TID 0000.0001) %MON vort_r_max                   =   6.5110084039919E-07
(PID.TID 0000.0001) %MON vort_a_mean                  =  -2.5205768034849E-05
(PID.TID 0000.0001) %MON vort_a_sd                    =   7.3403459705034E-05
(PID.TID 0000.0001) %MON vort_p_mean                  =  -3.1758667845679E-05
(PID.TID 0000.0001) %MON vort_p_sd                    =   1.3126282501996E-04
(PID.TID 0000.0001) %MON surfExpan_theta_mean         =   1.5502802818712E-05
(PID.TID 0000.0001) %MON surfExpan_salt_mean          =   1.2639703211306E-06
(PID.TID 0000.0001) // =======================================================
(PID.TID 0000.0001) // End MONITOR dynamic field statistics
(PID.TID 0000.0001) // =======================================================
time,SST,SSS,fu,fv,Q,E-P,i0,i1,a,b =   3.1536E+06 -1.0961E-01  3.4504E+01 -2.0441E-02 -2.8862E-02  2.4765E+02  0.0000E+00     1     2  7.1667E-01  2.8333E-01
time,fu0,fu1,fu =   3.1536E+06 -3.5633E-02 -1.4435E-02 -2.0441E-02  7.1667E-01  2.8333E-01
 cg2d: Sum(rhs),rhsMax =  -4.30211422042248E-16  7.85660812843742E+00
(PID.TID 0000.0001)                    cg2d_init_res =    5.48481234765186E-01
(PID.TID 0000.0001)                       cg2d_iters =    24
(PID.TID 0000.0001)                         cg2d_res =    4.81061009266502E-14
(PID.TID 0000.0001) // =======================================================
(PID.TID 0000.0001) // Begin MONITOR dynamic field statistics
(PID.TID 0000.0001) // =======================================================
(PID.TID 0000.0001) %MON time_tsnumber                =                    74
(PID.TID 0000.0001) %MON time_secondsf                =   3.1968000000000E+06
(PID.TID 0000.0001) %MON dynstat_eta_max              =   9.3589909376789E-01
(PID.TID 0000.0001) %MON dynstat_eta_min              =  -1.3857350041648E+00
(PID.TID 0000.0001) %MON dynstat_eta_mean             =   5.1252311779822E-17
(PID.TID 0000.0001) %MON dynstat_eta_sd               =   4.3568830624688E-01
(PID.TID 0000.0001) %MON dynstat_eta_del2             =   1.9173080478052E-02
(PID.TID 0000.0001) %MON dynstat_uvel_max             =   1.9950835700648E-01
(PID.TID 0000.0001) %MON dynstat_uvel_min             =  -1.6736723629560E-01
(PID.TID 0000.0001) %MON dynstat_uvel_mean            =   5.4734875590522E-04
(PID.TID 0000.0001) %MON dynstat_uvel_sd              =   1.9247952585189E-02
(PID.TID 0000.0001) %MON dynstat_uvel_del2            =   5.0566208689575E-03
(PID.TID 0000.0001) %MON dynstat_vvel_max             =   1.8389406057099E-01
(PID.TID 0000.0001) %MON dynstat_vvel_min             =  -1.5618332208908E-01
(PID.TID 0000.0001) %MON dynstat_vvel_mean            =  -1.7791092724746E-03
(PID.TID 0000.0001) %MON dynstat_vvel_sd              =   1.5460171391417E-02
(PID.TID 0000.0001) %MON dynstat_vvel_del2            =   4.6386800140001E-03
(PID.TID 0000.0001) %MON dynstat_wvel_max             =   3.7353598841094E-04
(PID.TID 0000.0001) %MON dynstat_wvel_min             =  -2.4996266808961E-04
(PID.TID 0000.0001) %MON dynstat_wvel_mean            =   1.8204479068887E-22
(PID.TID 0000.0001) %MON dynstat_wvel_sd              =   2.4358550274731E-05
(PID.TID 0000.0001) %MON dynstat_wvel_del2            =   9.5932550350232E-06
(PID.TID 0000.0001) %MON dynstat_theta_max            =   2.9726041907370E+01
(PID.TID 0000.0001) %MON dynstat_theta_min            =  -1.9436340944592E+00
(PID.TID 0000.0001) %MON dynstat_theta_mean           =   3.5908103977210E+00
(PID.TID 0000.0001) %MON dynstat_theta_sd             =   4.3380343009779E+00
(PID.TID 0000.0001) %MON dynstat_theta_del2           =   1.2898959591776E-01
(PID.TID 0000.0001) %MON dynstat_salt_max             =   3.7393487453509E+01
(PID.TID 0000.0001) %MON dynstat_salt_min             =   2.9772424019166E+01
(PID.TID 0000.0001) %MON dynstat_salt_mean            =   3.4716064291433E+01
(PID.TID 0000.0001) %MON dynstat_salt_sd              =   2.9394548270519E-01
(PID.TID 0000.0001) %MON dynstat_salt_del2            =   2.3523229577493E-02
(PID.TID 0000.0001) %MON advcfl_uvel_max              =   3.1036234650918E-02
(PID.TID 0000.0001) %MON advcfl_vvel_max              =   1.7863833331397E-02
(PID.TID 0000.0001) %MON advcfl_wvel_max              =   1.4957410459208E-01
(PID.TID 0000.0001) %MON advcfl_W_hf_max              =   1.5018578003357E-01
(PID.TID 0000.0001) %MON pe_b_mean                    =   2.4290307216651E-04
(PID.TID 0000.0001) %MON ke_max                       =   1.8746541313009E-02
(PID.TID 0000.0001) %MON ke_mean                      =   2.7717862527320E-04
(PID.TID 0000.0001) %MON ke_vol                       =   1.3226782436723E+18
(PID.TID 0000.0001) %MON vort_r_min                   =  -1.0130739725166E-06
(PID.TID 0000.0001) %MON vort_r_max                   =   6.5942487708483E-07
(PID.TID 0000.0001) %MON vort_a_mean                  =  -2.5205768002712E-05
(PID.TID 0000.0001) %MON vort_a_sd                    =   7.3403469005207E-05
(PID.TID 0000.0001) %MON vort_p_mean                  =  -3.1758667805187E-05
(PID.TID 0000.0001) %MON vort_p_sd                    =   1.3126281024344E-04
(PID.TID 0000.0001) %MON surfExpan_theta_mean         =   1.5535576291213E-05
(PID.TID 0000.0001) %MON surfExpan_salt_mean          =   1.2286729057023E-06
(PID.TID 0000.0001) // =======================================================
(PID.TID 0000.0001) // End MONITOR dynamic field statistics
(PID.TID 0000.0001) // =======================================================
time,SST,SSS,fu,fv,Q,E-P,i0,i1,a,b =   3.1968E+06 -1.3445E-01  3.4499E+01 -2.0088E-02 -2.8201E-02  2.4722E+02  0.0000E+00     1     2  7.3333E-01  2.6667E-01
time,fu0,fu1,fu =   3.1968E+06 -3.5633E-02 -1.4435E-02 -2.0088E-02  7.3333E-01  2.6667E-01
 cg2d: Sum(rhs),rhsMax =  -2.22433182983650E-13  7.50280922720095E+00
(PID.TID 0000.0001)                    cg2d_init_res =    5.65336971498609E-01
(PID.TID 0000.0001)                       cg2d_iters =    24
(PID.TID 0000.0001)                         cg2d_res =    9.43481426158269E-14
(PID.TID 0000.0001) // =======================================================
(PID.TID 0000.0001) // Begin MONITOR dynamic field statistics
(PID.TID 0000.0001) // =======================================================
(PID.TID 0000.0001) %MON time_tsnumber                =                    75
(PID.TID 0000.0001) %MON time_secondsf                =   3.2400000000000E+06
(PID.TID 0000.0001) %MON dynstat_eta_max              =   9.2083889099698E-01
(PID.TID 0000.0001) %MON dynstat_eta_min              =  -1.3688911061555E+00
(PID.TID 0000.0001) %MON dynstat_eta_mean             =   5.2285116157065E-17
(PID.TID 0000.0001) %MON dynstat_eta_sd               =   4.3745074781301E-01
(PID.TID 0000.0001) %MON dynstat_eta_del2             =   1.9116822856910E-02
(PID.TID 0000.0001) %MON dynstat_uvel_max             =   2.0032288461219E-01
(PID.TID 0000.0001) %MON dynstat_uvel_min             =  -1.6646055771140E-01
(PID.TID 0000.0001) %MON dynstat_uvel_mean            =   6.0327247277563E-04
(PID.TID 0000.0001) %MON dynstat_uvel_sd              =   1.9150530278239E-02
(PID.TID 0000.0001) %MON dynstat_uvel_del2            =   5.0458276240588E-03
(PID.TID 0000.0001) %MON dynstat_vvel_max             =   1.8318439777433E-01
(PID.TID 0000.0001) %MON dynstat_vvel_min             =  -1.5646803147712E-01
(PID.TID 0000.0001) %MON dynstat_vvel_mean            =  -1.6878586838362E-03
(PID.TID 0000.0001) %MON dynstat_vvel_sd              =   1.5484227541746E-02
(PID.TID 0000.0001) %MON dynstat_vvel_del2            =   4.6340331838943E-03
(PID.TID 0000.0001) %MON dynstat_wvel_max             =   3.7518688430442E-04
(PID.TID 0000.0001) %MON dynstat_wvel_min             =  -2.4854277490229E-04
(PID.TID 0000.0001) %MON dynstat_wvel_mean            =   5.1967115488242E-23
(PID.TID 0000.0001) %MON dynstat_wvel_sd              =   2.4189335636872E-05
(PID.TID 0000.0001) %MON dynstat_wvel_del2            =   9.5339188236154E-06
(PID.TID 0000.0001) %MON dynstat_theta_max            =   2.9731308776850E+01
(PID.TID 0000.0001) %MON dynstat_theta_min            =  -1.9394434137106E+00
(PID.TID 0000.0001) %MON dynstat_theta_mean           =   3.5906816429038E+00
(PID.TID 0000.0001) %MON dynstat_theta_sd             =   4.3376896147748E+00
(PID.TID 0000.0001) %MON dynstat_theta_del2           =   1.2888868589009E-01
(PID.TID 0000.0001) %MON dynstat_salt_max             =   3.7393769236775E+01
(PID.TID 0000.0001) %MON dynstat_salt_min             =   2.9770464408378E+01
(PID.TID 0000.0001) %MON dynstat_salt_mean            =   3.4716051294191E+01
(PID.TID 0000.0001) %MON dynstat_salt_sd              =   2.9392908776425E-01
(PID.TID 0000.0001) %MON dynstat_salt_del2            =   2.3497157934532E-02
(PID.TID 0000.0001) %MON advcfl_uvel_max              =   3.1008610983183E-02
(PID.TID 0000.0001) %MON advcfl_vvel_max              =   1.7794895281513E-02
(PID.TID 0000.0001) %MON advcfl_wvel_max              =   1.4272417445427E-01
(PID.TID 0000.0001) %MON advcfl_W_hf_max              =   1.4333810531340E-01
(PID.TID 0000.0001) %MON pe_b_mean                    =   2.4487222462018E-04
(PID.TID 0000.0001) %MON ke_max                       =   1.9084217772490E-02
(PID.TID 0000.0001) %MON ke_mean                      =   2.7570049183620E-04
(PID.TID 0000.0001) %MON ke_vol                       =   1.3226782436723E+18
(PID.TID 0000.0001) %MON vort_r_min                   =  -9.9581825338259E-07
(PID.TID 0000.0001) %MON vort_r_max                   =   6.6786205729553E-07
(PID.TID 0000.0001) %MON vort_a_mean                  =  -2.5205767974028E-05
(PID.TID 0000.0001) %MON vort_a_sd                    =   7.3403477420003E-05
(PID.TID 0000.0001) %MON vort_p_mean                  =  -3.1758667769045E-05
(PID.TID 0000.0001) %MON vort_p_sd                    =   1.3126279929798E-04
(PID.TID 0000.0001) %MON surfExpan_theta_mean         =   1.5514101418788E-05
(PID.TID 0000.0001) %MON surfExpan_salt_mean          =   1.1696541322269E-06
(PID.TID 0000.0001) // =======================================================
(PID.TID 0000.0001) // End MONITOR dynamic field statistics
(PID.TID 0000.0001) // =======================================================
time,SST,SSS,fu,fv,Q,E-P,i0,i1,a,b =   3.2400E+06 -1.5929E-01  3.4494E+01 -1.9734E-02 -2.7541E-02  2.4680E+02  0.0000E+00     1     2  7.5000E-01  2.5000E-01
time,fu0,fu1,fu =   3.2400E+06 -3.5633E-02 -1.4435E-02 -1.9734E-02  7.5000E-01  2.5000E-01
 cg2d: Sum(rhs),rhsMax =   4.19331236400922E-13  7.40659063235267E+00
(PID.TID 0000.0001)                    cg2d_init_res =    5.57569723751976E-01
(PID.TID 0000.0001)                       cg2d_iters =    25
(PID.TID 0000.0001)                         cg2d_res =    2.46976466221782E-14
(PID.TID 0000.0001) // =======================================================
(PID.TID 0000.0001) // Begin MONITOR dynamic field statistics
(PID.TID 0000.0001) // =======================================================
(PID.TID 0000.0001) %MON time_tsnumber                =                    76
(PID.TID 0000.0001) %MON time_secondsf                =   3.2832000000000E+06
(PID.TID 0000.0001) %MON dynstat_eta_max              =   9.0917163635675E-01
(PID.TID 0000.0001) %MON dynstat_eta_min              =  -1.3510289458271E+00
(PID.TID 0000.0001) %MON dynstat_eta_mean             =   2.1838146481366E-16
(PID.TID 0000.0001) %MON dynstat_eta_sd               =   4.3928701048759E-01
(PID.TID 0000.0001) %MON dynstat_eta_del2             =   1.9052191043992E-02
(PID.TID 0000.0001) %MON dynstat_uvel_max             =   2.0288053184713E-01
(PID.TID 0000.0001) %MON dynstat_uvel_min             =  -1.6542715544359E-01
(PID.TID 0000.0001) %MON dynstat_uvel_mean            =   6.5539440833067E-04
(PID.TID 0000.0001) %MON dynstat_uvel_sd              =   1.9023604448576E-02
(PID.TID 0000.0001) %MON dynstat_uvel_del2            =   5.0329919883378E-03
(PID.TID 0000.0001) %MON dynstat_vvel_max             =   1.8207880542454E-01
(PID.TID 0000.0001) %MON dynstat_vvel_min             =  -1.5657759095546E-01
(PID.TID 0000.0001) %MON dynstat_vvel_mean            =  -1.5932920329040E-03
(PID.TID 0000.0001) %MON dynstat_vvel_sd              =   1.5499024463783E-02
(PID.TID 0000.0001) %MON dynstat_vvel_del2            =   4.6275092294105E-03
(PID.TID 0000.0001) %MON dynstat_wvel_max             =   3.7671996597084E-04
(PID.TID 0000.0001) %MON dynstat_wvel_min             =  -2.4904223201219E-04
(PID.TID 0000.0001) %MON dynstat_wvel_mean            =  -2.5952881849698E-22
(PID.TID 0000.0001) %MON dynstat_wvel_sd              =   2.4008291342082E-05
(PID.TID 0000.0001) %MON dynstat_wvel_del2            =   9.4737049946782E-06
(PID.TID 0000.0001) %MON dynstat_theta_max            =   2.9736868461744E+01
(PID.TID 0000.0001) %MON dynstat_theta_min            =  -1.9348239557051E+00
(PID.TID 0000.0001) %MON dynstat_theta_mean           =   3.5905541746978E+00
(PID.TID 0000.0001) %MON dynstat_theta_sd             =   4.3373532715335E+00
(PID.TID 0000.0001) %MON dynstat_theta_del2           =   1.2883302475030E-01
(PID.TID 0000.0001) %MON dynstat_salt_max             =   3.7393953850323E+01
(PID.TID 0000.0001) %MON dynstat_salt_min             =   2.9768491890363E+01
(PID.TID 0000.0001) %MON dynstat_salt_mean            =   3.4716039321116E+01
(PID.TID 0000.0001) %MON dynstat_salt_sd              =   2.9391150496341E-01
(PID.TID 0000.0001) %MON dynstat_salt_del2            =   2.3472688089654E-02
(PID.TID 0000.0001) %MON advcfl_uvel_max              =   3.0973450977651E-02
(PID.TID 0000.0001) %MON advcfl_vvel_max              =   1.7687495850516E-02
(PID.TID 0000.0001) %MON advcfl_wvel_max              =   1.4948247642197E-01
(PID.TID 0000.0001) %MON advcfl_W_hf_max              =   1.4183749782934E-01
(PID.TID 0000.0001) %MON pe_b_mean                    =   2.4693231235892E-04
(PID.TID 0000.0001) %MON ke_max                       =   1.9260777757322E-02
(PID.TID 0000.0001) %MON ke_mean                      =   2.7359553079443E-04
(PID.TID 0000.0001) %MON ke_vol                       =   1.3226782436723E+18
(PID.TID 0000.0001) %MON vort_r_min                   =  -9.7760246294717E-07
(PID.TID 0000.0001) %MON vort_r_max                   =   6.7626115670360E-07
(PID.TID 0000.0001) %MON vort_a_mean                  =  -2.5205767949217E-05
(PID.TID 0000.0001) %MON vort_a_sd                    =   7.3403484999744E-05
(PID.TID 0000.0001) %MON vort_p_mean                  =  -3.1758667737784E-05
(PID.TID 0000.0001) %MON vort_p_sd                    =   1.3126279165188E-04
(PID.TID 0000.0001) %MON surfExpan_theta_mean         =   1.5445168368552E-05
(PID.TID 0000.0001) %MON surfExpan_salt_mean          =   1.0906360973651E-06
(PID.TID 0000.0001) // =======================================================
(PID.TID 0000.0001) // End MONITOR dynamic field statistics
(PID.TID 0000.0001) // =======================================================
time,SST,SSS,fu,fv,Q,E-P,i0,i1,a,b =   3.2832E+06 -1.8412E-01  3.4490E+01 -1.9381E-02 -2.6880E-02  2.4638E+02  0.0000E+00     1     2  7.6667E-01  2.3333E-01
time,fu0,fu1,fu =   3.2832E+06 -3.5633E-02 -1.4435E-02 -1.9381E-02  7.6667E-01  2.3333E-01
 cg2d: Sum(rhs),rhsMax =   3.60725338488521E-13  8.12844823207648E+00
(PID.TID 0000.0001)                    cg2d_init_res =    4.89632215066562E-01
(PID.TID 0000.0001)                       cg2d_iters =    24
(PID.TID 0000.0001)                         cg2d_res =    9.78425768387850E-14
(PID.TID 0000.0001) // =======================================================
(PID.TID 0000.0001) // Begin MONITOR dynamic field statistics
(PID.TID 0000.0001) // =======================================================
(PID.TID 0000.0001) %MON time_tsnumber                =                    77
(PID.TID 0000.0001) %MON time_secondsf                =   3.3264000000000E+06
(PID.TID 0000.0001) %MON dynstat_eta_max              =   8.9505847587226E-01
(PID.TID 0000.0001) %MON dynstat_eta_min              =  -1.3333087051575E+00
(PID.TID 0000.0001) %MON dynstat_eta_mean             =   9.6390582913011E-17
(PID.TID 0000.0001) %MON dynstat_eta_sd               =   4.4117103371060E-01
(PID.TID 0000.0001) %MON dynstat_eta_del2             =   1.9026925155394E-02
(PID.TID 0000.0001) %MON dynstat_uvel_max             =   2.0684506161065E-01
(PID.TID 0000.0001) %MON dynstat_uvel_min             =  -1.6427585289288E-01
(PID.TID 0000.0001) %MON dynstat_uvel_mean            =   7.0387377653466E-04
(PID.TID 0000.0001) %MON dynstat_uvel_sd              =   1.8870470051891E-02
(PID.TID 0000.0001) %MON dynstat_uvel_del2            =   5.0190581051124E-03
(PID.TID 0000.0001) %MON dynstat_vvel_max             =   1.8057911941026E-01
(PID.TID 0000.0001) %MON dynstat_vvel_min             =  -1.5651900249700E-01
(PID.TID 0000.0001) %MON dynstat_vvel_mean            =  -1.4968667313991E-03
(PID.TID 0000.0001) %MON dynstat_vvel_sd              =   1.5504004168261E-02
(PID.TID 0000.0001) %MON dynstat_vvel_del2            =   4.6180932901017E-03
(PID.TID 0000.0001) %MON dynstat_wvel_max             =   3.7814228982301E-04
(PID.TID 0000.0001) %MON dynstat_wvel_min             =  -2.4898930071818E-04
(PID.TID 0000.0001) %MON dynstat_wvel_mean            =   3.9638597836168E-22
(PID.TID 0000.0001) %MON dynstat_wvel_sd              =   2.3818377810507E-05
(PID.TID 0000.0001) %MON dynstat_wvel_del2            =   9.4083155218447E-06
(PID.TID 0000.0001) %MON dynstat_theta_max            =   2.9742625447187E+01
(PID.TID 0000.0001) %MON dynstat_theta_min            =  -1.9305256155238E+00
(PID.TID 0000.0001) %MON dynstat_theta_mean           =   3.5904284797615E+00
(PID.TID 0000.0001) %MON dynstat_theta_sd             =   4.3370272031354E+00
(PID.TID 0000.0001) %MON dynstat_theta_del2           =   1.2877874666206E-01
(PID.TID 0000.0001) %MON dynstat_salt_max             =   3.7394128528999E+01
(PID.TID 0000.0001) %MON dynstat_salt_min             =   2.9766512113688E+01
(PID.TID 0000.0001) %MON dynstat_salt_mean            =   3.4716028531960E+01
(PID.TID 0000.0001) %MON dynstat_salt_sd              =   2.9389299185181E-01
(PID.TID 0000.0001) %MON dynstat_salt_del2            =   2.3452086264564E-02
(PID.TID 0000.0001) %MON advcfl_uvel_max              =   3.0932120531972E-02
(PID.TID 0000.0001) %MON advcfl_vvel_max              =   1.7541813380265E-02
(PID.TID 0000.0001) %MON advcfl_wvel_max              =   1.5284094646617E-01
(PID.TID 0000.0001) %MON advcfl_W_hf_max              =   1.4485348780801E-01
(PID.TID 0000.0001) %MON pe_b_mean                    =   2.4905495125224E-04
(PID.TID 0000.0001) %MON ke_max                       =   1.9356941385034E-02
(PID.TID 0000.0001) %MON ke_mean                      =   2.7092466857300E-04
(PID.TID 0000.0001) %MON ke_vol                       =   1.3226782436723E+18
(PID.TID 0000.0001) %MON vort_r_min                   =  -9.5861657724220E-07
(PID.TID 0000.0001) %MON vort_r_max                   =   6.8446295223662E-07
(PID.TID 0000.0001) %MON vort_a_mean                  =  -2.5205767928655E-05
(PID.TID 0000.0001) %MON vort_a_sd                    =   7.3403491778371E-05
(PID.TID 0000.0001) %MON vort_p_mean                  =  -3.1758667711876E-05
(PID.TID 0000.0001) %MON vort_p_sd                    =   1.3126278669201E-04
(PID.TID 0000.0001) %MON surfExpan_theta_mean         =   1.5331030910079E-05
(PID.TID 0000.0001) %MON surfExpan_salt_mean          =   9.9486209604434E-07
(PID.TID 0000.0001) // =======================================================
(PID.TID 0000.0001) // End MONITOR dynamic field statistics
(PID.TID 0000.0001) // =======================================================
time,SST,SSS,fu,fv,Q,E-P,i0,i1,a,b =   3.3264E+06 -2.0896E-01  3.4485E+01 -1.9028E-02 -2.6220E-02  2.4596E+02  0.0000E+00     1     2  7.8333E-01  2.1667E-01
time,fu0,fu1,fu =   3.3264E+06 -3.5633E-02 -1.4435E-02 -1.9028E-02  7.8333E-01  2.1667E-01
 cg2d: Sum(rhs),rhsMax =   9.84212711330201E-14  8.77420784370775E+00
(PID.TID 0000.0001)                    cg2d_init_res =    4.33287757164287E-01
(PID.TID 0000.0001)                       cg2d_iters =    24
(PID.TID 0000.0001)                         cg2d_res =    8.72298489897243E-14
(PID.TID 0000.0001) // =======================================================
(PID.TID 0000.0001) // Begin MONITOR dynamic field statistics
(PID.TID 0000.0001) // =======================================================
(PID.TID 0000.0001) %MON time_tsnumber                =                    78
(PID.TID 0000.0001) %MON time_secondsf                =   3.3696000000000E+06
(PID.TID 0000.0001) %MON dynstat_eta_max              =   9.6652358745215E-01
(PID.TID 0000.0001) %MON dynstat_eta_min              =  -1.3167880945330E+00
(PID.TID 0000.0001) %MON dynstat_eta_mean             =  -1.0414666208769E-16
(PID.TID 0000.0001) %MON dynstat_eta_sd               =   4.4307083582779E-01
(PID.TID 0000.0001) %MON dynstat_eta_del2             =   1.9015013747838E-02
(PID.TID 0000.0001) %MON dynstat_uvel_max             =   2.1007661685515E-01
(PID.TID 0000.0001) %MON dynstat_uvel_min             =  -1.6301500612438E-01
(PID.TID 0000.0001) %MON dynstat_uvel_mean            =   7.4880276815125E-04
(PID.TID 0000.0001) %MON dynstat_uvel_sd              =   1.8694753282242E-02
(PID.TID 0000.0001) %MON dynstat_uvel_del2            =   5.0044114559433E-03
(PID.TID 0000.0001) %MON dynstat_vvel_max             =   1.7868895393762E-01
(PID.TID 0000.0001) %MON dynstat_vvel_min             =  -1.5629923330145E-01
(PID.TID 0000.0001) %MON dynstat_vvel_mean            =  -1.3998099685317E-03
(PID.TID 0000.0001) %MON dynstat_vvel_sd              =   1.5499328415036E-02
(PID.TID 0000.0001) %MON dynstat_vvel_del2            =   4.6065314425026E-03
(PID.TID 0000.0001) %MON dynstat_wvel_max             =   3.7946198402807E-04
(PID.TID 0000.0001) %MON dynstat_wvel_min             =  -2.4841896275323E-04
(PID.TID 0000.0001) %MON dynstat_wvel_mean            =  -4.3475193536724E-22
(PID.TID 0000.0001) %MON dynstat_wvel_sd              =   2.3623658094279E-05
(PID.TID 0000.0001) %MON dynstat_wvel_del2            =   9.3412291607927E-06
(PID.TID 0000.0001) %MON dynstat_theta_max            =   2.9748481027016E+01
(PID.TID 0000.0001) %MON dynstat_theta_min            =  -1.9305107039594E+00
(PID.TID 0000.0001) %MON dynstat_theta_mean           =   3.5903050284412E+00
(PID.TID 0000.0001) %MON dynstat_theta_sd             =   4.3367135829579E+00
(PID.TID 0000.0001) %MON dynstat_theta_del2           =   1.2873674406399E-01
(PID.TID 0000.0001) %MON dynstat_salt_max             =   3.7394263814384E+01
(PID.TID 0000.0001) %MON dynstat_salt_min             =   2.9764529866144E+01
(PID.TID 0000.0001) %MON dynstat_salt_mean            =   3.4716019047898E+01
(PID.TID 0000.0001) %MON dynstat_salt_sd              =   2.9387391112331E-01
(PID.TID 0000.0001) %MON dynstat_salt_del2            =   2.3429190107467E-02
(PID.TID 0000.0001) %MON advcfl_uvel_max              =   3.0885856692784E-02
(PID.TID 0000.0001) %MON advcfl_vvel_max              =   1.7358198961903E-02
(PID.TID 0000.0001) %MON advcfl_wvel_max              =   1.5144800301921E-01
(PID.TID 0000.0001) %MON advcfl_W_hf_max              =   1.4346773641327E-01
(PID.TID 0000.0001) %MON pe_b_mean                    =   2.5120456604830E-04
(PID.TID 0000.0001) %MON ke_max                       =   1.9614075629070E-02
(PID.TID 0000.0001) %MON ke_mean                      =   2.6776416147619E-04
(PID.TID 0000.0001) %MON ke_vol                       =   1.3226782436723E+18
(PID.TID 0000.0001) %MON vort_r_min                   =  -9.3905046480169E-07
(PID.TID 0000.0001) %MON vort_r_max                   =   6.9230696161377E-07
(PID.TID 0000.0001) %MON vort_a_mean                  =  -2.5205767912653E-05
(PID.TID 0000.0001) %MON vort_a_sd                    =   7.3403497773747E-05
(PID.TID 0000.0001) %MON vort_p_mean                  =  -3.1758667691714E-05
(PID.TID 0000.0001) %MON vort_p_sd                    =   1.3126278373229E-04
(PID.TID 0000.0001) %MON surfExpan_theta_mean         =   1.5175520616863E-05
(PID.TID 0000.0001) %MON surfExpan_salt_mean          =   8.8639051063781E-07
(PID.TID 0000.0001) // =======================================================
(PID.TID 0000.0001) // End MONITOR dynamic field statistics
(PID.TID 0000.0001) // =======================================================
time,SST,SSS,fu,fv,Q,E-P,i0,i1,a,b =   3.3696E+06 -2.3380E-01  3.4480E+01 -1.8674E-02 -2.5560E-02  2.4554E+02  0.0000E+00     1     2  8.0000E-01  2.0000E-01
time,fu0,fu1,fu =   3.3696E+06 -3.5633E-02 -1.4435E-02 -1.8674E-02  8.0000E-01  2.0000E-01
 cg2d: Sum(rhs),rhsMax =   4.48807657704720E-13  9.32820218513295E+00
(PID.TID 0000.0001)                    cg2d_init_res =    3.86634392943854E-01
(PID.TID 0000.0001)                       cg2d_iters =    24
(PID.TID 0000.0001)                         cg2d_res =    7.70212868443688E-14
(PID.TID 0000.0001) // =======================================================
(PID.TID 0000.0001) // Begin MONITOR dynamic field statistics
(PID.TID 0000.0001) // =======================================================
(PID.TID 0000.0001) %MON time_tsnumber                =                    79
(PID.TID 0000.0001) %MON time_secondsf                =   3.4128000000000E+06
(PID.TID 0000.0001) %MON dynstat_eta_max              =   1.0307369188634E+00
(PID.TID 0000.0001) %MON dynstat_eta_min              =  -1.3023697344463E+00
(PID.TID 0000.0001) %MON dynstat_eta_mean             =  -4.1435961403470E-17
(PID.TID 0000.0001) %MON dynstat_eta_sd               =   4.4495191064773E-01
(PID.TID 0000.0001) %MON dynstat_eta_del2             =   1.9047063421326E-02
(PID.TID 0000.0001) %MON dynstat_uvel_max             =   2.1254822422275E-01
(PID.TID 0000.0001) %MON dynstat_uvel_min             =  -1.6165244956777E-01
(PID.TID 0000.0001) %MON dynstat_uvel_mean            =   7.9020747755988E-04
(PID.TID 0000.0001) %MON dynstat_uvel_sd              =   1.8500242296806E-02
(PID.TID 0000.0001) %MON dynstat_uvel_del2            =   4.9898267248961E-03
(PID.TID 0000.0001) %MON dynstat_vvel_max             =   1.7863438854717E-01
(PID.TID 0000.0001) %MON dynstat_vvel_min             =  -1.5592506284277E-01
(PID.TID 0000.0001) %MON dynstat_vvel_mean            =  -1.3030983411681E-03
(PID.TID 0000.0001) %MON dynstat_vvel_sd              =   1.5485759262875E-02
(PID.TID 0000.0001) %MON dynstat_vvel_del2            =   4.5935402307455E-03
(PID.TID 0000.0001) %MON dynstat_wvel_max             =   3.8068756498816E-04
(PID.TID 0000.0001) %MON dynstat_wvel_min             =  -2.4737160223556E-04
(PID.TID 0000.0001) %MON dynstat_wvel_mean            =   6.5207387024596E-24
(PID.TID 0000.0001) %MON dynstat_wvel_sd              =   2.3428769454486E-05
(PID.TID 0000.0001) %MON dynstat_wvel_del2            =   9.2754130787949E-06
(PID.TID 0000.0001) %MON dynstat_theta_max            =   2.9754335888680E+01
(PID.TID 0000.0001) %MON dynstat_theta_min            =  -1.9305282806363E+00
(PID.TID 0000.0001) %MON dynstat_theta_mean           =   3.5901842688313E+00
(PID.TID 0000.0001) %MON dynstat_theta_sd             =   4.3364137574314E+00
(PID.TID 0000.0001) %MON dynstat_theta_del2           =   1.2869853624940E-01
(PID.TID 0000.0001) %MON dynstat_salt_max             =   3.7394356927544E+01
(PID.TID 0000.0001) %MON dynstat_salt_min             =   2.9762549030329E+01
(PID.TID 0000.0001) %MON dynstat_salt_mean            =   3.4716010940454E+01
(PID.TID 0000.0001) %MON dynstat_salt_sd              =   2.9385492953132E-01
(PID.TID 0000.0001) %MON dynstat_salt_del2            =   2.3406082033313E-02
(PID.TID 0000.0001) %MON advcfl_uvel_max              =   3.0835703055065E-02
(PID.TID 0000.0001) %MON advcfl_vvel_max              =   1.7352898371782E-02
(PID.TID 0000.0001) %MON advcfl_wvel_max              =   1.4562634101545E-01
(PID.TID 0000.0001) %MON advcfl_W_hf_max              =   1.3797977489594E-01
(PID.TID 0000.0001) %MON pe_b_mean                    =   2.5334209182396E-04
(PID.TID 0000.0001) %MON ke_max                       =   2.0035380386711E-02
(PID.TID 0000.0001) %MON ke_mean                      =   2.6420010666684E-04
(PID.TID 0000.0001) %MON ke_vol                       =   1.3226782436723E+18
(PID.TID 0000.0001) %MON vort_r_min                   =  -9.1909171664703E-07
(PID.TID 0000.0001) %MON vort_r_max                   =   6.9963787951903E-07
(PID.TID 0000.0001) %MON vort_a_mean                  =  -2.5205767901430E-05
(PID.TID 0000.0001) %MON vort_a_sd                    =   7.3403502988366E-05
(PID.TID 0000.0001) %MON vort_p_mean                  =  -3.1758667677573E-05
(PID.TID 0000.0001) %MON vort_p_sd                    =   1.3126278192593E-04
(PID.TID 0000.0001) %MON surfExpan_theta_mean         =   1.4981067267411E-05
(PID.TID 0000.0001) %MON surfExpan_salt_mean          =   7.6923316829850E-07
(PID.TID 0000.0001) // =======================================================
(PID.TID 0000.0001) // End MONITOR dynamic field statistics
(PID.TID 0000.0001) // =======================================================
time,SST,SSS,fu,fv,Q,E-P,i0,i1,a,b =   3.4128E+06 -2.5864E-01  3.4475E+01 -1.8321E-02 -2.4899E-02  2.4512E+02  0.0000E+00     1     2  8.1667E-01  1.8333E-01
time,fu0,fu1,fu =   3.4128E+06 -3.5633E-02 -1.4435E-02 -1.8321E-02  8.1667E-01  1.8333E-01
 cg2d: Sum(rhs),rhsMax =   1.35461086792077E-13  9.78281073968892E+00
(PID.TID 0000.0001)                    cg2d_init_res =    3.48296768197340E-01
(PID.TID 0000.0001)                       cg2d_iters =    24
(PID.TID 0000.0001)                         cg2d_res =    5.94653572278148E-14
(PID.TID 0000.0001) // =======================================================
(PID.TID 0000.0001) // Begin MONITOR dynamic field statistics
(PID.TID 0000.0001) // =======================================================
(PID.TID 0000.0001) %MON time_tsnumber                =                    80
(PID.TID 0000.0001) %MON time_secondsf                =   3.4560000000000E+06
(PID.TID 0000.0001) %MON dynstat_eta_max              =   1.0839609839230E+00
(PID.TID 0000.0001) %MON dynstat_eta_min              =  -1.2907621900974E+00
(PID.TID 0000.0001) %MON dynstat_eta_mean             =   1.2349600615334E-16
(PID.TID 0000.0001) %MON dynstat_eta_sd               =   4.4678060917028E-01
(PID.TID 0000.0001) %MON dynstat_eta_del2             =   1.9115337328090E-02
(PID.TID 0000.0001) %MON dynstat_uvel_max             =   2.1424142183946E-01
(PID.TID 0000.0001) %MON dynstat_uvel_min             =  -1.6019545958062E-01
(PID.TID 0000.0001) %MON dynstat_uvel_mean            =   8.2806961565400E-04
(PID.TID 0000.0001) %MON dynstat_uvel_sd              =   1.8290736868344E-02
(PID.TID 0000.0001) %MON dynstat_uvel_del2            =   4.9755985652500E-03
(PID.TID 0000.0001) %MON dynstat_vvel_max             =   1.7948458129889E-01
(PID.TID 0000.0001) %MON dynstat_vvel_min             =  -1.5540293393118E-01
(PID.TID 0000.0001) %MON dynstat_vvel_mean            =  -1.2074592991406E-03
(PID.TID 0000.0001) %MON dynstat_vvel_sd              =   1.5464504108690E-02
(PID.TID 0000.0001) %MON dynstat_vvel_del2            =   4.5789304724409E-03
(PID.TID 0000.0001) %MON dynstat_wvel_max             =   3.8182716345444E-04
(PID.TID 0000.0001) %MON dynstat_wvel_min             =  -2.4589154796504E-04
(PID.TID 0000.0001) %MON dynstat_wvel_mean            =   1.8180128747728E-22
(PID.TID 0000.0001) %MON dynstat_wvel_sd              =   2.3238313540420E-05
(PID.TID 0000.0001) %MON dynstat_wvel_del2            =   9.2118791874788E-06
(PID.TID 0000.0001) %MON dynstat_theta_max            =   2.9760095388286E+01
(PID.TID 0000.0001) %MON dynstat_theta_min            =  -1.9305858058740E+00
(PID.TID 0000.0001) %MON dynstat_theta_mean           =   3.5900666060028E+00
(PID.TID 0000.0001) %MON dynstat_theta_sd             =   4.3361284177457E+00
(PID.TID 0000.0001) %MON dynstat_theta_del2           =   1.2865442618932E-01
(PID.TID 0000.0001) %MON dynstat_salt_max             =   3.7394406143352E+01
(PID.TID 0000.0001) %MON dynstat_salt_min             =   2.9760572584387E+01
(PID.TID 0000.0001) %MON dynstat_salt_mean            =   3.4716004236302E+01
(PID.TID 0000.0001) %MON dynstat_salt_sd              =   2.9383613489917E-01
(PID.TID 0000.0001) %MON dynstat_salt_del2            =   2.3384741720279E-02
(PID.TID 0000.0001) %MON advcfl_uvel_max              =   3.0782518315009E-02
(PID.TID 0000.0001) %MON advcfl_vvel_max              =   1.7435487779886E-02
(PID.TID 0000.0001) %MON advcfl_wvel_max              =   1.3584352420609E-01
(PID.TID 0000.0001) %MON advcfl_W_hf_max              =   1.2882316427026E-01
(PID.TID 0000.0001) %MON pe_b_mean                    =   2.5542878174820E-04
(PID.TID 0000.0001) %MON ke_max                       =   2.0392660515184E-02
(PID.TID 0000.0001) %MON ke_mean                      =   2.6032298953948E-04
(PID.TID 0000.0001) %MON ke_vol                       =   1.3226782436723E+18
(PID.TID 0000.0001) %MON vort_r_min                   =  -8.9894464407857E-07
(PID.TID 0000.0001) %MON vort_r_max                   =   7.0631084038528E-07
(PID.TID 0000.0001) %MON vort_a_mean                  =  -2.5205767895108E-05
(PID.TID 0000.0001) %MON vort_a_sd                    =   7.3403507412979E-05
(PID.TID 0000.0001) %MON vort_p_mean                  =  -3.1758667669608E-05
(PID.TID 0000.0001) %MON vort_p_sd                    =   1.3126278042188E-04
(PID.TID 0000.0001) %MON surfExpan_theta_mean         =   1.4749030615972E-05
(PID.TID 0000.0001) %MON surfExpan_salt_mean          =   6.4735046840522E-07
(PID.TID 0000.0001) // =======================================================
(PID.TID 0000.0001) // End MONITOR dynamic field statistics
(PID.TID 0000.0001) // =======================================================
time,SST,SSS,fu,fv,Q,E-P,i0,i1,a,b =   3.4560E+06 -2.8348E-01  3.4470E+01 -1.7968E-02 -2.4239E-02  2.4470E+02  0.0000E+00     1     2  8.3333E-01  1.6667E-01
time,fu0,fu1,fu =   3.4560E+06 -3.5633E-02 -1.4435E-02 -1.7968E-02  8.3333E-01  1.6667E-01
 cg2d: Sum(rhs),rhsMax =   1.07344688693445E-13  1.01326142586848E+01
(PID.TID 0000.0001)                    cg2d_init_res =    3.17498425763265E-01
(PID.TID 0000.0001)                       cg2d_iters =    23
(PID.TID 0000.0001)                         cg2d_res =    7.55916278484581E-14
(PID.TID 0000.0001) // =======================================================
(PID.TID 0000.0001) // Begin MONITOR dynamic field statistics
(PID.TID 0000.0001) // =======================================================
(PID.TID 0000.0001) %MON time_tsnumber                =                    81
(PID.TID 0000.0001) %MON time_secondsf                =   3.4992000000000E+06
(PID.TID 0000.0001) %MON dynstat_eta_max              =   1.1252266678040E+00
(PID.TID 0000.0001) %MON dynstat_eta_min              =  -1.2824558453259E+00
(PID.TID 0000.0001) %MON dynstat_eta_mean             =  -6.3304509480131E-17
(PID.TID 0000.0001) %MON dynstat_eta_sd               =   4.4852709403826E-01
(PID.TID 0000.0001) %MON dynstat_eta_del2             =   1.9197122864339E-02
(PID.TID 0000.0001) %MON dynstat_uvel_max             =   2.1514660167650E-01
(PID.TID 0000.0001) %MON dynstat_uvel_min             =  -1.5865080623747E-01
(PID.TID 0000.0001) %MON dynstat_uvel_mean            =   8.6233941428805E-04
(PID.TID 0000.0001) %MON dynstat_uvel_sd              =   1.8069933117388E-02
(PID.TID 0000.0001) %MON dynstat_uvel_del2            =   4.9627429319783E-03
(PID.TID 0000.0001) %MON dynstat_vvel_max             =   1.8015089488907E-01
(PID.TID 0000.0001) %MON dynstat_vvel_min             =  -1.5473882120774E-01
(PID.TID 0000.0001) %MON dynstat_vvel_mean            =  -1.1133729760145E-03
(PID.TID 0000.0001) %MON dynstat_vvel_sd              =   1.5437039574770E-02
(PID.TID 0000.0001) %MON dynstat_vvel_del2            =   4.5644574846261E-03
(PID.TID 0000.0001) %MON dynstat_wvel_max             =   3.8288765130652E-04
(PID.TID 0000.0001) %MON dynstat_wvel_min             =  -2.4402581737952E-04
(PID.TID 0000.0001) %MON dynstat_wvel_mean            =  -1.0418579795002E-22
(PID.TID 0000.0001) %MON dynstat_wvel_sd              =   2.3056461994394E-05
(PID.TID 0000.0001) %MON dynstat_wvel_del2            =   9.1480057331308E-06
(PID.TID 0000.0001) %MON dynstat_theta_max            =   2.9765672993595E+01
(PID.TID 0000.0001) %MON dynstat_theta_min            =  -1.9306897154430E+00
(PID.TID 0000.0001) %MON dynstat_theta_mean           =   3.5899524121633E+00
(PID.TID 0000.0001) %MON dynstat_theta_sd             =   4.3358584595768E+00
(PID.TID 0000.0001) %MON dynstat_theta_del2           =   1.2863620648170E-01
(PID.TID 0000.0001) %MON dynstat_salt_max             =   3.7394410824913E+01
(PID.TID 0000.0001) %MON dynstat_salt_min             =   2.9758602649927E+01
(PID.TID 0000.0001) %MON dynstat_salt_mean            =   3.4715998919793E+01
(PID.TID 0000.0001) %MON dynstat_salt_sd              =   2.9381775551322E-01
(PID.TID 0000.0001) %MON dynstat_salt_del2            =   2.3360738285541E-02
(PID.TID 0000.0001) %MON advcfl_uvel_max              =   3.0726957084059E-02
(PID.TID 0000.0001) %MON advcfl_vvel_max              =   1.7500214801979E-02
(PID.TID 0000.0001) %MON advcfl_wvel_max              =   1.2268531540292E-01
(PID.TID 0000.0001) %MON advcfl_W_hf_max              =   1.1654077045487E-01
(PID.TID 0000.0001) %MON pe_b_mean                    =   2.5742964933311E-04
(PID.TID 0000.0001) %MON ke_max                       =   2.0721456660743E-02
(PID.TID 0000.0001) %MON ke_mean                      =   2.5622275831468E-04
(PID.TID 0000.0001) %MON ke_vol                       =   1.3226782436723E+18
(PID.TID 0000.0001) %MON vort_r_min                   =  -8.7880432785527E-07
(PID.TID 0000.0001) %MON vort_r_max                   =   7.1219748498415E-07
(PID.TID 0000.0001) %MON vort_a_mean                  =  -2.5205767893744E-05
(PID.TID 0000.0001) %MON vort_a_sd                    =   7.3403511029531E-05
(PID.TID 0000.0001) %MON vort_p_mean                  =  -3.1758667667890E-05
(PID.TID 0000.0001) %MON vort_p_sd                    =   1.3126277840418E-04
(PID.TID 0000.0001) %MON surfExpan_theta_mean         =   1.4481827578956E-05
(PID.TID 0000.0001) %MON surfExpan_salt_mean          =   5.2488037736467E-07
(PID.TID 0000.0001) // =======================================================
(PID.TID 0000.0001) // End MONITOR dynamic field statistics
(PID.TID 0000.0001) // =======================================================
time,SST,SSS,fu,fv,Q,E-P,i0,i1,a,b =   3.4992E+06 -3.0831E-01  3.4465E+01 -1.7614E-02 -2.3579E-02  2.4427E+02  0.0000E+00     1     2  8.5000E-01  1.5000E-01
time,fu0,fu1,fu =   3.4992E+06 -3.5633E-02 -1.4435E-02 -1.7614E-02  8.5000E-01  1.5000E-01
 cg2d: Sum(rhs),rhsMax =   1.01377239936085E-13  1.03744136992269E+01
(PID.TID 0000.0001)                    cg2d_init_res =    2.93823182472855E-01
(PID.TID 0000.0001)                       cg2d_iters =    24
(PID.TID 0000.0001)                         cg2d_res =    4.30147550058072E-14
(PID.TID 0000.0001) // =======================================================
(PID.TID 0000.0001) // Begin MONITOR dynamic field statistics
(PID.TID 0000.0001) // =======================================================
(PID.TID 0000.0001) %MON time_tsnumber                =                    82
(PID.TID 0000.0001) %MON time_secondsf                =   3.5424000000000E+06
(PID.TID 0000.0001) %MON dynstat_eta_max              =   1.1542050487498E+00
(PID.TID 0000.0001) %MON dynstat_eta_min              =  -1.2777140646028E+00
(PID.TID 0000.0001) %MON dynstat_eta_mean             =  -5.3814122935693E-17
(PID.TID 0000.0001) %MON dynstat_eta_sd               =   4.5016760704193E-01
(PID.TID 0000.0001) %MON dynstat_eta_del2             =   1.9248984313698E-02
(PID.TID 0000.0001) %MON dynstat_uvel_max             =   2.1526327319624E-01
(PID.TID 0000.0001) %MON dynstat_uvel_min             =  -1.5702483653591E-01
(PID.TID 0000.0001) %MON dynstat_uvel_mean            =   8.9294657827710E-04
(PID.TID 0000.0001) %MON dynstat_uvel_sd              =   1.7841340601788E-02
(PID.TID 0000.0001) %MON dynstat_uvel_del2            =   4.9512930593750E-03
(PID.TID 0000.0001) %MON dynstat_vvel_max             =   1.8060888698906E-01
(PID.TID 0000.0001) %MON dynstat_vvel_min             =  -1.5393814317470E-01
(PID.TID 0000.0001) %MON dynstat_vvel_mean            =  -1.0210852532348E-03
(PID.TID 0000.0001) %MON dynstat_vvel_sd              =   1.5404939292966E-02
(PID.TID 0000.0001) %MON dynstat_vvel_del2            =   4.5494345358183E-03
(PID.TID 0000.0001) %MON dynstat_wvel_max             =   3.8387406402845E-04
(PID.TID 0000.0001) %MON dynstat_wvel_min             =  -2.4182279656298E-04
(PID.TID 0000.0001) %MON dynstat_wvel_mean            =   6.2955659897422E-23
(PID.TID 0000.0001) %MON dynstat_wvel_sd              =   2.2886378239730E-05
(PID.TID 0000.0001) %MON dynstat_wvel_del2            =   9.0831315707697E-06
(PID.TID 0000.0001) %MON dynstat_theta_max            =   2.9770992890799E+01
(PID.TID 0000.0001) %MON dynstat_theta_min            =  -1.9308451689641E+00
(PID.TID 0000.0001) %MON dynstat_theta_mean           =   3.5898420641464E+00
(PID.TID 0000.0001) %MON dynstat_theta_sd             =   4.3356040411105E+00
(PID.TID 0000.0001) %MON dynstat_theta_del2           =   1.2862391587625E-01
(PID.TID 0000.0001) %MON dynstat_salt_max             =   3.7394371287185E+01
(PID.TID 0000.0001) %MON dynstat_salt_min             =   2.9756640579851E+01
(PID.TID 0000.0001) %MON dynstat_salt_mean            =   3.4715994934383E+01
(PID.TID 0000.0001) %MON dynstat_salt_sd              =   2.9379998019176E-01
(PID.TID 0000.0001) %MON dynstat_salt_del2            =   2.3340001032848E-02
(PID.TID 0000.0001) %MON advcfl_uvel_max              =   3.0669469312087E-02
(PID.TID 0000.0001) %MON advcfl_vvel_max              =   1.7544705061837E-02
(PID.TID 0000.0001) %MON advcfl_wvel_max              =   1.0682554896110E-01
(PID.TID 0000.0001) %MON advcfl_W_hf_max              =   1.0175684577111E-01
(PID.TID 0000.0001) %MON pe_b_mean                    =   2.5931621991656E-04
(PID.TID 0000.0001) %MON ke_max                       =   2.0940623120817E-02
(PID.TID 0000.0001) %MON ke_mean                      =   2.5198476564401E-04
(PID.TID 0000.0001) %MON ke_vol                       =   1.3226782436723E+18
(PID.TID 0000.0001) %MON vort_r_min                   =  -8.5885135041035E-07
(PID.TID 0000.0001) %MON vort_r_max                   =   7.1718998978089E-07
(PID.TID 0000.0001) %MON vort_a_mean                  =  -2.5205767897221E-05
(PID.TID 0000.0001) %MON vort_a_sd                    =   7.3403513815463E-05
(PID.TID 0000.0001) %MON vort_p_mean                  =  -3.1758667672270E-05
(PID.TID 0000.0001) %MON vort_p_sd                    =   1.3126277501686E-04
(PID.TID 0000.0001) %MON surfExpan_theta_mean         =   1.4181043353191E-05
(PID.TID 0000.0001) %MON surfExpan_salt_mean          =   4.0545454425108E-07
(PID.TID 0000.0001) // =======================================================
(PID.TID 0000.0001) // End MONITOR dynamic field statistics
(PID.TID 0000.0001) // =======================================================
time,SST,SSS,fu,fv,Q,E-P,i0,i1,a,b =   3.5424E+06 -3.3315E-01  3.4460E+01 -1.7261E-02 -2.2918E-02  2.4385E+02  0.0000E+00     1     2  8.6667E-01  1.3333E-01
time,fu0,fu1,fu =   3.5424E+06 -3.5633E-02 -1.4435E-02 -1.7261E-02  8.6667E-01  1.3333E-01
 cg2d: Sum(rhs),rhsMax =  -6.28108676181682E-14  1.05072081191034E+01
(PID.TID 0000.0001)                    cg2d_init_res =    2.77032805243889E-01
(PID.TID 0000.0001)                       cg2d_iters =    24
(PID.TID 0000.0001)                         cg2d_res =    5.23024483724069E-14
(PID.TID 0000.0001) // =======================================================
(PID.TID 0000.0001) // Begin MONITOR dynamic field statistics
(PID.TID 0000.0001) // =======================================================
(PID.TID 0000.0001) %MON time_tsnumber                =                    83
(PID.TID 0000.0001) %MON time_secondsf                =   3.5856000000000E+06
(PID.TID 0000.0001) %MON dynstat_eta_max              =   1.1708213827478E+00
(PID.TID 0000.0001) %MON dynstat_eta_min              =  -1.2765789066407E+00
(PID.TID 0000.0001) %MON dynstat_eta_mean             =   2.1918489951859E-16
(PID.TID 0000.0001) %MON dynstat_eta_sd               =   4.5168589829561E-01
(PID.TID 0000.0001) %MON dynstat_eta_del2             =   1.9282489392450E-02
(PID.TID 0000.0001) %MON dynstat_uvel_max             =   2.1460011840134E-01
(PID.TID 0000.0001) %MON dynstat_uvel_min             =  -1.5532358580158E-01
(PID.TID 0000.0001) %MON dynstat_uvel_mean            =   9.1982284922697E-04
(PID.TID 0000.0001) %MON dynstat_uvel_sd              =   1.7608236432058E-02
(PID.TID 0000.0001) %MON dynstat_uvel_del2            =   4.9407070844771E-03
(PID.TID 0000.0001) %MON dynstat_vvel_max             =   1.8083996377790E-01
(PID.TID 0000.0001) %MON dynstat_vvel_min             =  -1.5300566844429E-01
(PID.TID 0000.0001) %MON dynstat_vvel_mean            =  -9.3062495293599E-04
(PID.TID 0000.0001) %MON dynstat_vvel_sd              =   1.5369723243298E-02
(PID.TID 0000.0001) %MON dynstat_vvel_del2            =   4.5337296072108E-03
(PID.TID 0000.0001) %MON dynstat_wvel_max             =   3.8478878327976E-04
(PID.TID 0000.0001) %MON dynstat_wvel_min             =  -2.3933114109605E-04
(PID.TID 0000.0001) %MON dynstat_wvel_mean            =  -5.3524586310429E-23
(PID.TID 0000.0001) %MON dynstat_wvel_sd              =   2.2730075174094E-05
(PID.TID 0000.0001) %MON dynstat_wvel_del2            =   9.0223750864244E-06
(PID.TID 0000.0001) %MON dynstat_theta_max            =   2.9775992123289E+01
(PID.TID 0000.0001) %MON dynstat_theta_min            =  -1.9310481149458E+00
(PID.TID 0000.0001) %MON dynstat_theta_mean           =   3.5897358848979E+00
(PID.TID 0000.0001) %MON dynstat_theta_sd             =   4.3353656043286E+00
(PID.TID 0000.0001) %MON dynstat_theta_del2           =   1.2861874853784E-01
(PID.TID 0000.0001) %MON dynstat_salt_max             =   3.7394288644938E+01
(PID.TID 0000.0001) %MON dynstat_salt_min             =   2.9754687076432E+01
(PID.TID 0000.0001) %MON dynstat_salt_mean            =   3.4715992188077E+01
(PID.TID 0000.0001) %MON dynstat_salt_sd              =   2.9378270033027E-01
(PID.TID 0000.0001) %MON dynstat_salt_del2            =   2.3317293792039E-02
(PID.TID 0000.0001) %MON advcfl_uvel_max              =   3.0610331885366E-02
(PID.TID 0000.0001) %MON advcfl_vvel_max              =   1.7567152318860E-02
(PID.TID 0000.0001) %MON advcfl_wvel_max              =   8.8994247774156E-02
(PID.TID 0000.0001) %MON advcfl_W_hf_max              =   8.5147496586084E-02
(PID.TID 0000.0001) %MON pe_b_mean                    =   2.6106837397141E-04
(PID.TID 0000.0001) %MON ke_max                       =   2.1047660552689E-02
(PID.TID 0000.0001) %MON ke_mean                      =   2.4768688199031E-04
(PID.TID 0000.0001) %MON ke_vol                       =   1.3226782436723E+18
(PID.TID 0000.0001) %MON vort_r_min                   =  -8.3924813085979E-07
(PID.TID 0000.0001) %MON vort_r_max                   =   7.2120379618051E-07
(PID.TID 0000.0001) %MON vort_a_mean                  =  -2.5205767904858E-05
(PID.TID 0000.0001) %MON vort_a_sd                    =   7.3403515752781E-05
(PID.TID 0000.0001) %MON vort_p_mean                  =  -3.1758667681893E-05
(PID.TID 0000.0001) %MON vort_p_sd                    =   1.3126276948587E-04
(PID.TID 0000.0001) %MON surfExpan_theta_mean         =   1.3848715747474E-05
(PID.TID 0000.0001) %MON surfExpan_salt_mean          =   2.9237253591633E-07
(PID.TID 0000.0001) // =======================================================
(PID.TID 0000.0001) // End MONITOR dynamic field statistics
(PID.TID 0000.0001) // =======================================================
time,SST,SSS,fu,fv,Q,E-P,i0,i1,a,b =   3.5856E+06 -3.5799E-01  3.4455E+01 -1.6908E-02 -2.2258E-02  2.4343E+02  0.0000E+00     1     2  8.8333E-01  1.1667E-01
time,fu0,fu1,fu =   3.5856E+06 -3.5633E-02 -1.4435E-02 -1.6908E-02  8.8333E-01  1.1667E-01
 cg2d: Sum(rhs),rhsMax =  -1.68060010352633E-14  1.05321358587323E+01
(PID.TID 0000.0001)                    cg2d_init_res =    2.66908332067101E-01
(PID.TID 0000.0001)                       cg2d_iters =    24
(PID.TID 0000.0001)                         cg2d_res =    4.88349920475042E-14
(PID.TID 0000.0001) // =======================================================
(PID.TID 0000.0001) // Begin MONITOR dynamic field statistics
(PID.TID 0000.0001) // =======================================================
(PID.TID 0000.0001) %MON time_tsnumber                =                    84
(PID.TID 0000.0001) %MON time_secondsf                =   3.6288000000000E+06
(PID.TID 0000.0001) %MON dynstat_eta_max              =   1.1752434927735E+00
(PID.TID 0000.0001) %MON dynstat_eta_min              =  -1.2788894686622E+00
(PID.TID 0000.0001) %MON dynstat_eta_mean             =  -1.0384376546620E-17
(PID.TID 0000.0001) %MON dynstat_eta_sd               =   4.5307380142481E-01
(PID.TID 0000.0001) %MON dynstat_eta_del2             =   1.9292305469744E-02
(PID.TID 0000.0001) %MON dynstat_uvel_max             =   2.1317488523142E-01
(PID.TID 0000.0001) %MON dynstat_uvel_min             =  -1.5355290701959E-01
(PID.TID 0000.0001) %MON dynstat_uvel_mean            =   9.4291930273737E-04
(PID.TID 0000.0001) %MON dynstat_uvel_sd              =   1.7373650380143E-02
(PID.TID 0000.0001) %MON dynstat_uvel_del2            =   4.9302528242101E-03
(PID.TID 0000.0001) %MON dynstat_vvel_max             =   1.8083168232099E-01
(PID.TID 0000.0001) %MON dynstat_vvel_min             =  -1.5194547095622E-01
(PID.TID 0000.0001) %MON dynstat_vvel_mean            =  -8.4183162783489E-04
(PID.TID 0000.0001) %MON dynstat_vvel_sd              =   1.5332740331083E-02
(PID.TID 0000.0001) %MON dynstat_vvel_del2            =   4.5192293980197E-03
(PID.TID 0000.0001) %MON dynstat_wvel_max             =   3.8563083723120E-04
(PID.TID 0000.0001) %MON dynstat_wvel_min             =  -2.3659898381815E-04
(PID.TID 0000.0001) %MON dynstat_wvel_mean            =   1.7032755099137E-22
(PID.TID 0000.0001) %MON dynstat_wvel_sd              =   2.2588286189836E-05
(PID.TID 0000.0001) %MON dynstat_wvel_del2            =   8.9669982883993E-06
(PID.TID 0000.0001) %MON dynstat_theta_max            =   2.9780623063730E+01
(PID.TID 0000.0001) %MON dynstat_theta_min            =  -1.9312880732966E+00
(PID.TID 0000.0001) %MON dynstat_theta_mean           =   3.5896342134818E+00
(PID.TID 0000.0001) %MON dynstat_theta_sd             =   4.3351418430797E+00
(PID.TID 0000.0001) %MON dynstat_theta_del2           =   1.2862298217964E-01
(PID.TID 0000.0001) %MON dynstat_salt_max             =   3.7394164666558E+01
(PID.TID 0000.0001) %MON dynstat_salt_min             =   2.9752742329446E+01
(PID.TID 0000.0001) %MON dynstat_salt_mean            =   3.4715990560430E+01
(PID.TID 0000.0001) %MON dynstat_salt_sd              =   2.9376473844615E-01
(PID.TID 0000.0001) %MON dynstat_salt_del2            =   2.3291091517372E-02
(PID.TID 0000.0001) %MON advcfl_uvel_max              =   3.0549689912857E-02
(PID.TID 0000.0001) %MON advcfl_vvel_max              =   1.7566347841731E-02
(PID.TID 0000.0001) %MON advcfl_wvel_max              =   7.1776777400052E-02
(PID.TID 0000.0001) %MON advcfl_W_hf_max              =   6.7411042094762E-02
(PID.TID 0000.0001) %MON pe_b_mean                    =   2.6267521755491E-04
(PID.TID 0000.0001) %MON ke_max                       =   2.1042063642844E-02
(PID.TID 0000.0001) %MON ke_mean                      =   2.4339778202810E-04
(PID.TID 0000.0001) %MON ke_vol                       =   1.3226782436723E+18
(PID.TID 0000.0001) %MON vort_r_min                   =  -8.2013597251925E-07
(PID.TID 0000.0001) %MON vort_r_max                   =   7.2417935709584E-07
(PID.TID 0000.0001) %MON vort_a_mean                  =  -2.5205767917138E-05
(PID.TID 0000.0001) %MON vort_a_sd                    =   7.3403516814794E-05
(PID.TID 0000.0001) %MON vort_p_mean                  =  -3.1758667697365E-05
(PID.TID 0000.0001) %MON vort_p_sd                    =   1.3126276104334E-04
(PID.TID 0000.0001) %MON surfExpan_theta_mean         =   1.3485904850011E-05
(PID.TID 0000.0001) %MON surfExpan_salt_mean          =   1.8835560717527E-07
(PID.TID 0000.0001) // =======================================================
(PID.TID 0000.0001) // End MONITOR dynamic field statistics
(PID.TID 0000.0001) // =======================================================
time,SST,SSS,fu,fv,Q,E-P,i0,i1,a,b =   3.6288E+06 -3.8283E-01  3.4450E+01 -1.6555E-02 -2.1598E-02  2.4301E+02  0.0000E+00     1     2  9.0000E-01  1.0000E-01
time,fu0,fu1,fu =   3.6288E+06 -3.5633E-02 -1.4435E-02 -1.6555E-02  9.0000E-01  1.0000E-01
 cg2d: Sum(rhs),rhsMax =   3.76143560743003E-13  1.04523943360105E+01
(PID.TID 0000.0001)                    cg2d_init_res =    2.63157689218694E-01
(PID.TID 0000.0001)                       cg2d_iters =    24
(PID.TID 0000.0001)                         cg2d_res =    4.56324341884651E-14
(PID.TID 0000.0001) // =======================================================
(PID.TID 0000.0001) // Begin MONITOR dynamic field statistics
(PID.TID 0000.0001) // =======================================================
(PID.TID 0000.0001) %MON time_tsnumber                =                    85
(PID.TID 0000.0001) %MON time_secondsf                =   3.6720000000000E+06
(PID.TID 0000.0001) %MON dynstat_eta_max              =   1.1678667448936E+00
(PID.TID 0000.0001) %MON dynstat_eta_min              =  -1.2843104988982E+00
(PID.TID 0000.0001) %MON dynstat_eta_mean             =  -5.1712232641004E-16
(PID.TID 0000.0001) %MON dynstat_eta_sd               =   4.5433113676226E-01
(PID.TID 0000.0001) %MON dynstat_eta_del2             =   1.9266505923783E-02
(PID.TID 0000.0001) %MON dynstat_uvel_max             =   2.1101423941502E-01
(PID.TID 0000.0001) %MON dynstat_uvel_min             =  -1.5449634935325E-01
(PID.TID 0000.0001) %MON dynstat_uvel_mean            =   9.6222333708917E-04
(PID.TID 0000.0001) %MON dynstat_uvel_sd              =   1.7140381285084E-02
(PID.TID 0000.0001) %MON dynstat_uvel_del2            =   4.9215717620043E-03
(PID.TID 0000.0001) %MON dynstat_vvel_max             =   1.8057779218614E-01
(PID.TID 0000.0001) %MON dynstat_vvel_min             =  -1.5076096022619E-01
(PID.TID 0000.0001) %MON dynstat_vvel_mean            =  -7.5439275418592E-04
(PID.TID 0000.0001) %MON dynstat_vvel_sd              =   1.5295078777667E-02
(PID.TID 0000.0001) %MON dynstat_vvel_del2            =   4.5056887559282E-03
(PID.TID 0000.0001) %MON dynstat_wvel_max             =   3.8639549302066E-04
(PID.TID 0000.0001) %MON dynstat_wvel_min             =  -2.3367293597493E-04
(PID.TID 0000.0001) %MON dynstat_wvel_mean            =   1.2212820587546E-22
(PID.TID 0000.0001) %MON dynstat_wvel_sd              =   2.2460546759672E-05
(PID.TID 0000.0001) %MON dynstat_wvel_del2            =   8.9148186325517E-06
(PID.TID 0000.0001) %MON dynstat_theta_max            =   2.9784854921058E+01
(PID.TID 0000.0001) %MON dynstat_theta_min            =  -1.9315920931094E+00
(PID.TID 0000.0001) %MON dynstat_theta_mean           =   3.5895372431753E+00
(PID.TID 0000.0001) %MON dynstat_theta_sd             =   4.3349347273812E+00
(PID.TID 0000.0001) %MON dynstat_theta_del2           =   1.2863636501417E-01
(PID.TID 0000.0001) %MON dynstat_salt_max             =   3.7394001596367E+01
(PID.TID 0000.0001) %MON dynstat_salt_min             =   2.9750806164070E+01
(PID.TID 0000.0001) %MON dynstat_salt_mean            =   3.4715989907557E+01
(PID.TID 0000.0001) %MON dynstat_salt_sd              =   2.9374806586987E-01
(PID.TID 0000.0001) %MON dynstat_salt_del2            =   2.3268887862831E-02
(PID.TID 0000.0001) %MON advcfl_uvel_max              =   3.0487580359322E-02
(PID.TID 0000.0001) %MON advcfl_vvel_max              =   1.7541684451084E-02
(PID.TID 0000.0001) %MON advcfl_wvel_max              =   6.9970702115952E-02
(PID.TID 0000.0001) %MON advcfl_W_hf_max              =   6.0461809423997E-02
(PID.TID 0000.0001) %MON pe_b_mean                    =   2.6413515235268E-04
(PID.TID 0000.0001) %MON ke_max                       =   2.0925316952794E-02
(PID.TID 0000.0001) %MON ke_mean                      =   2.3917626055157E-04
(PID.TID 0000.0001) %MON ke_vol                       =   1.3226782436723E+18
(PID.TID 0000.0001) %MON vort_r_min                   =  -8.0164246619725E-07
(PID.TID 0000.0001) %MON vort_r_max                   =   7.2608276511907E-07
(PID.TID 0000.0001) %MON vort_a_mean                  =  -2.5205767933787E-05
(PID.TID 0000.0001) %MON vort_a_sd                    =   7.3403516990687E-05
(PID.TID 0000.0001) %MON vort_p_mean                  =  -3.1758667718343E-05
(PID.TID 0000.0001) %MON vort_p_sd                    =   1.3126274906555E-04
(PID.TID 0000.0001) %MON surfExpan_theta_mean         =   1.3095948977073E-05
(PID.TID 0000.0001) %MON surfExpan_salt_mean          =   9.5615748217306E-08
(PID.TID 0000.0001) // =======================================================
(PID.TID 0000.0001) // End MONITOR dynamic field statistics
(PID.TID 0000.0001) // =======================================================
time,SST,SSS,fu,fv,Q,E-P,i0,i1,a,b =   3.6720E+06 -4.0767E-01  3.4446E+01 -1.6201E-02 -2.0937E-02  2.4259E+02  0.0000E+00     1     2  9.1667E-01  8.3333E-02
time,fu0,fu1,fu =   3.6720E+06 -3.5633E-02 -1.4435E-02 -1.6201E-02  9.1667E-01  8.3333E-02
 cg2d: Sum(rhs),rhsMax =  -3.73534536635134E-13  1.02769518886458E+01
(PID.TID 0000.0001)                    cg2d_init_res =    2.65257304128701E-01
(PID.TID 0000.0001)                       cg2d_iters =    24
(PID.TID 0000.0001)                         cg2d_res =    4.32173569711541E-14
(PID.TID 0000.0001) // =======================================================
(PID.TID 0000.0001) // Begin MONITOR dynamic field statistics
(PID.TID 0000.0001) // =======================================================
(PID.TID 0000.0001) %MON time_tsnumber                =                    86
(PID.TID 0000.0001) %MON time_secondsf                =   3.7152000000000E+06
(PID.TID 0000.0001) %MON dynstat_eta_max              =   1.1492958229503E+00
(PID.TID 0000.0001) %MON dynstat_eta_min              =  -1.2923666413620E+00
(PID.TID 0000.0001) %MON dynstat_eta_mean             =  -7.5754771159376E-17
(PID.TID 0000.0001) %MON dynstat_eta_sd               =   4.5546488863000E-01
(PID.TID 0000.0001) %MON dynstat_eta_del2             =   1.9243647607800E-02
(PID.TID 0000.0001) %MON dynstat_uvel_max             =   2.0815362684166E-01
(PID.TID 0000.0001) %MON dynstat_uvel_min             =  -1.5563922801066E-01
(PID.TID 0000.0001) %MON dynstat_uvel_mean            =   9.7775147536896E-04
(PID.TID 0000.0001) %MON dynstat_uvel_sd              =   1.6911036348762E-02
(PID.TID 0000.0001) %MON dynstat_uvel_del2            =   4.9150890204159E-03
(PID.TID 0000.0001) %MON dynstat_vvel_max             =   1.8007805325646E-01
(PID.TID 0000.0001) %MON dynstat_vvel_min             =  -1.4989384430326E-01
(PID.TID 0000.0001) %MON dynstat_vvel_mean            =  -6.6786301425687E-04
(PID.TID 0000.0001) %MON dynstat_vvel_sd              =   1.5257512897016E-02
(PID.TID 0000.0001) %MON dynstat_vvel_del2            =   4.4921063175771E-03
(PID.TID 0000.0001) %MON dynstat_wvel_max             =   3.8707412253400E-04
(PID.TID 0000.0001) %MON dynstat_wvel_min             =  -2.3059729537776E-04
(PID.TID 0000.0001) %MON dynstat_wvel_mean            =  -5.7837590187027E-23
(PID.TID 0000.0001) %MON dynstat_wvel_sd              =   2.2345329024987E-05
(PID.TID 0000.0001) %MON dynstat_wvel_del2            =   8.8664186683539E-06
(PID.TID 0000.0001) %MON dynstat_theta_max            =   2.9788674222909E+01
(PID.TID 0000.0001) %MON dynstat_theta_min            =  -1.9319422875220E+00
(PID.TID 0000.0001) %MON dynstat_theta_mean           =   3.5894452554636E+00
(PID.TID 0000.0001) %MON dynstat_theta_sd             =   4.3347431693254E+00
(PID.TID 0000.0001) %MON dynstat_theta_del2           =   1.2864696415529E-01
(PID.TID 0000.0001) %MON dynstat_salt_max             =   3.7393802007123E+01
(PID.TID 0000.0001) %MON dynstat_salt_min             =   2.9748878188412E+01
(PID.TID 0000.0001) %MON dynstat_salt_mean            =   3.4715990079356E+01
(PID.TID 0000.0001) %MON dynstat_salt_sd              =   2.9373144610403E-01
(PID.TID 0000.0001) %MON dynstat_salt_del2            =   2.3247466882524E-02
(PID.TID 0000.0001) %MON advcfl_uvel_max              =   3.0423950314674E-02
(PID.TID 0000.0001) %MON advcfl_vvel_max              =   1.7493138821491E-02
(PID.TID 0000.0001) %MON advcfl_wvel_max              =   6.6378923782981E-02
(PID.TID 0000.0001) %MON advcfl_W_hf_max              =   6.2538227505840E-02
(PID.TID 0000.0001) %MON pe_b_mean                    =   2.6545505910588E-04
(PID.TID 0000.0001) %MON ke_max                       =   2.0700850610638E-02
(PID.TID 0000.0001) %MON ke_mean                      =   2.3507144430438E-04
(PID.TID 0000.0001) %MON ke_vol                       =   1.3226782436723E+18
(PID.TID 0000.0001) %MON vort_r_min                   =  -7.8387861143603E-07
(PID.TID 0000.0001) %MON vort_r_max                   =   7.2690534138961E-07
(PID.TID 0000.0001) %MON vort_a_mean                  =  -2.5205767954124E-05
(PID.TID 0000.0001) %MON vort_a_sd                    =   7.3403516281424E-05
(PID.TID 0000.0001) %MON vort_p_mean                  =  -3.1758667743967E-05
(PID.TID 0000.0001) %MON vort_p_sd                    =   1.3126273300715E-04
(PID.TID 0000.0001) %MON surfExpan_theta_mean         =   1.2681921741984E-05
(PID.TID 0000.0001) %MON surfExpan_salt_mean          =   1.5668338498290E-08
(PID.TID 0000.0001) // =======================================================
(PID.TID 0000.0001) // End MONITOR dynamic field statistics
(PID.TID 0000.0001) // =======================================================
time,SST,SSS,fu,fv,Q,E-P,i0,i1,a,b =   3.7152E+06 -4.3250E-01  3.4441E+01 -1.5848E-02 -2.0277E-02  2.4217E+02  0.0000E+00     1     2  9.3333E-01  6.6667E-02
time,fu0,fu1,fu =   3.7152E+06 -3.5633E-02 -1.4435E-02 -1.5848E-02  9.3333E-01  6.6667E-02
 cg2d: Sum(rhs),rhsMax =  -1.97120098022197E-13  1.00214510737778E+01
(PID.TID 0000.0001)                    cg2d_init_res =    2.72436448305497E-01
(PID.TID 0000.0001)                       cg2d_iters =    24
(PID.TID 0000.0001)                         cg2d_res =    4.15419500431031E-14
(PID.TID 0000.0001) // =======================================================
(PID.TID 0000.0001) // Begin MONITOR dynamic field statistics
(PID.TID 0000.0001) // =======================================================
(PID.TID 0000.0001) %MON time_tsnumber                =                    87
(PID.TID 0000.0001) %MON time_secondsf                =   3.7584000000000E+06
(PID.TID 0000.0001) %MON dynstat_eta_max              =   1.1203249927011E+00
(PID.TID 0000.0001) %MON dynstat_eta_min              =  -1.3024807657994E+00
(PID.TID 0000.0001) %MON dynstat_eta_mean             =   1.7834095736258E-16
(PID.TID 0000.0001) %MON dynstat_eta_sd               =   4.5648808302668E-01
(PID.TID 0000.0001) %MON dynstat_eta_del2             =   1.9213480059134E-02
(PID.TID 0000.0001) %MON dynstat_uvel_max             =   2.0463684776715E-01
(PID.TID 0000.0001) %MON dynstat_uvel_min             =  -1.5656157363594E-01
(PID.TID 0000.0001) %MON dynstat_uvel_mean            =   9.8957913819348E-04
(PID.TID 0000.0001) %MON dynstat_uvel_sd              =   1.6688072484990E-02
(PID.TID 0000.0001) %MON dynstat_uvel_del2            =   4.9107449910697E-03
(PID.TID 0000.0001) %MON dynstat_vvel_max             =   1.7933786041095E-01
(PID.TID 0000.0001) %MON dynstat_vvel_min             =  -1.5018995013194E-01
(PID.TID 0000.0001) %MON dynstat_vvel_mean            =  -5.8172010780128E-04
(PID.TID 0000.0001) %MON dynstat_vvel_sd              =   1.5220486756909E-02
(PID.TID 0000.0001) %MON dynstat_vvel_del2            =   4.4790197418628E-03
(PID.TID 0000.0001) %MON dynstat_wvel_max             =   3.8765421894927E-04
(PID.TID 0000.0001) %MON dynstat_wvel_min             =  -2.2741350024744E-04
(PID.TID 0000.0001) %MON dynstat_wvel_mean            =  -2.2808989059985E-23
(PID.TID 0000.0001) %MON dynstat_wvel_sd              =   2.2240327334188E-05
(PID.TID 0000.0001) %MON dynstat_wvel_del2            =   8.8246428650381E-06
(PID.TID 0000.0001) %MON dynstat_theta_max            =   2.9792110209663E+01
(PID.TID 0000.0001) %MON dynstat_theta_min            =  -1.9321433277230E+00
(PID.TID 0000.0001) %MON dynstat_theta_mean           =   3.5893584147335E+00
(PID.TID 0000.0001) %MON dynstat_theta_sd             =   4.3345669501490E+00
(PID.TID 0000.0001) %MON dynstat_theta_del2           =   1.2866562328047E-01
(PID.TID 0000.0001) %MON dynstat_salt_max             =   3.7393568721316E+01
(PID.TID 0000.0001) %MON dynstat_salt_min             =   2.9746957931658E+01
(PID.TID 0000.0001) %MON dynstat_salt_mean            =   3.4715990912904E+01
(PID.TID 0000.0001) %MON dynstat_salt_sd              =   2.9371479641321E-01
(PID.TID 0000.0001) %MON dynstat_salt_del2            =   2.3225118496525E-02
(PID.TID 0000.0001) %MON advcfl_uvel_max              =   3.0358711683032E-02
(PID.TID 0000.0001) %MON advcfl_vvel_max              =   1.7421235022182E-02
(PID.TID 0000.0001) %MON advcfl_wvel_max              =   6.1205668425853E-02
(PID.TID 0000.0001) %MON advcfl_W_hf_max              =   6.3953321514678E-02
(PID.TID 0000.0001) %MON pe_b_mean                    =   2.6664907964151E-04
(PID.TID 0000.0001) %MON ke_max                       =   2.0373919962503E-02
(PID.TID 0000.0001) %MON ke_mean                      =   2.3112361431398E-04
(PID.TID 0000.0001) %MON ke_vol                       =   1.3226782436723E+18
(PID.TID 0000.0001) %MON vort_r_min                   =  -7.6692532488555E-07
(PID.TID 0000.0001) %MON vort_r_max                   =   7.2666229167801E-07
(PID.TID 0000.0001) %MON vort_a_mean                  =  -2.5205767977741E-05
(PID.TID 0000.0001) %MON vort_a_sd                    =   7.3403514700146E-05
(PID.TID 0000.0001) %MON vort_p_mean                  =  -3.1758667773724E-05
(PID.TID 0000.0001) %MON vort_p_sd                    =   1.3126271243562E-04
(PID.TID 0000.0001) %MON surfExpan_theta_mean         =   1.2247638437758E-05
(PID.TID 0000.0001) %MON surfExpan_salt_mean          =  -5.0555734579928E-08
(PID.TID 0000.0001) // =======================================================
(PID.TID 0000.0001) // End MONITOR dynamic field statistics
(PID.TID 0000.0001) // =======================================================
time,SST,SSS,fu,fv,Q,E-P,i0,i1,a,b =   3.7584E+06 -4.5734E-01  3.4436E+01 -1.5495E-02 -1.9617E-02  2.4175E+02  0.0000E+00     1     2  9.5000E-01  5.0000E-02
time,fu0,fu1,fu =   3.7584E+06 -3.5633E-02 -1.4435E-02 -1.5495E-02  9.5000E-01  5.0000E-02
 cg2d: Sum(rhs),rhsMax =   8.64724958304919E-14  9.68125384286292E+00
(PID.TID 0000.0001)                    cg2d_init_res =    2.84453486286499E-01
(PID.TID 0000.0001)                       cg2d_iters =    24
(PID.TID 0000.0001)                         cg2d_res =    4.07690510682857E-14
(PID.TID 0000.0001) // =======================================================
(PID.TID 0000.0001) // Begin MONITOR dynamic field statistics
(PID.TID 0000.0001) // =======================================================
(PID.TID 0000.0001) %MON time_tsnumber                =                    88
(PID.TID 0000.0001) %MON time_secondsf                =   3.8016000000000E+06
(PID.TID 0000.0001) %MON dynstat_eta_max              =   1.0819159606020E+00
(PID.TID 0000.0001) %MON dynstat_eta_min              =  -1.3140141055780E+00
(PID.TID 0000.0001) %MON dynstat_eta_mean             =  -7.4059218914162E-18
(PID.TID 0000.0001) %MON dynstat_eta_sd               =   4.5741836642316E-01
(PID.TID 0000.0001) %MON dynstat_eta_del2             =   1.9173139076858E-02
(PID.TID 0000.0001) %MON dynstat_uvel_max             =   2.0051520054530E-01
(PID.TID 0000.0001) %MON dynstat_uvel_min             =  -1.5726900035914E-01
(PID.TID 0000.0001) %MON dynstat_uvel_mean            =   9.9783765886148E-04
(PID.TID 0000.0001) %MON dynstat_uvel_sd              =   1.6473844835797E-02
(PID.TID 0000.0001) %MON dynstat_uvel_del2            =   4.9071650452254E-03
(PID.TID 0000.0001) %MON dynstat_vvel_max             =   1.7836770554129E-01
(PID.TID 0000.0001) %MON dynstat_vvel_min             =  -1.5046514494613E-01
(PID.TID 0000.0001) %MON dynstat_vvel_mean            =  -4.9539916322990E-04
(PID.TID 0000.0001) %MON dynstat_vvel_sd              =   1.5184123039139E-02
(PID.TID 0000.0001) %MON dynstat_vvel_del2            =   4.4666333798955E-03
(PID.TID 0000.0001) %MON dynstat_wvel_max             =   3.8811962446599E-04
(PID.TID 0000.0001) %MON dynstat_wvel_min             =  -2.2415977264472E-04
(PID.TID 0000.0001) %MON dynstat_wvel_mean            =   9.8028410121146E-23
(PID.TID 0000.0001) %MON dynstat_wvel_sd              =   2.2142761664194E-05
(PID.TID 0000.0001) %MON dynstat_wvel_del2            =   8.7821849734030E-06
(PID.TID 0000.0001) %MON dynstat_theta_max            =   2.9795329355233E+01
(PID.TID 0000.0001) %MON dynstat_theta_min            =  -1.9321750323725E+00
(PID.TID 0000.0001) %MON dynstat_theta_mean           =   3.5892768477408E+00
(PID.TID 0000.0001) %MON dynstat_theta_sd             =   4.3344057504078E+00
(PID.TID 0000.0001) %MON dynstat_theta_del2           =   1.2866629440801E-01
(PID.TID 0000.0001) %MON dynstat_salt_max             =   3.7393304698823E+01
(PID.TID 0000.0001) %MON dynstat_salt_min             =   2.9745044965310E+01
(PID.TID 0000.0001) %MON dynstat_salt_mean            =   3.4715992246231E+01
(PID.TID 0000.0001) %MON dynstat_salt_sd              =   2.9369799306840E-01
(PID.TID 0000.0001) %MON dynstat_salt_del2            =   2.3206479709107E-02
(PID.TID 0000.0001) %MON advcfl_uvel_max              =   3.0291736192809E-02
(PID.TID 0000.0001) %MON advcfl_vvel_max              =   1.7326992256301E-02
(PID.TID 0000.0001) %MON advcfl_wvel_max              =   5.8633494772269E-02
(PID.TID 0000.0001) %MON advcfl_W_hf_max              =   6.4638147143602E-02
(PID.TID 0000.0001) %MON pe_b_mean                    =   2.6773700277626E-04
(PID.TID 0000.0001) %MON ke_max                       =   1.9951410526913E-02
(PID.TID 0000.0001) %MON ke_mean                      =   2.2736542041745E-04
(PID.TID 0000.0001) %MON ke_vol                       =   1.3226782436723E+18
(PID.TID 0000.0001) %MON vort_r_min                   =  -7.5083728477553E-07
(PID.TID 0000.0001) %MON vort_r_max                   =   7.2539055625361E-07
(PID.TID 0000.0001) %MON vort_a_mean                  =  -2.5205768004322E-05
(PID.TID 0000.0001) %MON vort_a_sd                    =   7.3403512274292E-05
(PID.TID 0000.0001) %MON vort_p_mean                  =  -3.1758667807215E-05
(PID.TID 0000.0001) %MON vort_p_sd                    =   1.3126268702482E-04
(PID.TID 0000.0001) %MON surfExpan_theta_mean         =   1.1797598458421E-05
(PID.TID 0000.0001) %MON surfExpan_salt_mean          =  -1.0264950767783E-07
(PID.TID 0000.0001) // =======================================================
(PID.TID 0000.0001) // End MONITOR dynamic field statistics
(PID.TID 0000.0001) // =======================================================
time,SST,SSS,fu,fv,Q,E-P,i0,i1,a,b =   3.8016E+06 -4.8218E-01  3.4431E+01 -1.5141E-02 -1.8956E-02  2.4132E+02  0.0000E+00     1     2  9.6667E-01  3.3333E-02
time,fu0,fu1,fu =   3.8016E+06 -3.5633E-02 -1.4435E-02 -1.5141E-02  9.6667E-01  3.3333E-02
 cg2d: Sum(rhs),rhsMax =  -3.96141452974064E-13  9.26624651952960E+00
(PID.TID 0000.0001)                    cg2d_init_res =    3.00800813391387E-01
(PID.TID 0000.0001)                       cg2d_iters =    24
(PID.TID 0000.0001)                         cg2d_res =    3.64847918895593E-14
(PID.TID 0000.0001) // =======================================================
(PID.TID 0000.0001) // Begin MONITOR dynamic field statistics
(PID.TID 0000.0001) // =======================================================
(PID.TID 0000.0001) %MON time_tsnumber                =                    89
(PID.TID 0000.0001) %MON time_secondsf                =   3.8448000000000E+06
(PID.TID 0000.0001) %MON dynstat_eta_max              =   1.0351736982098E+00
(PID.TID 0000.0001) %MON dynstat_eta_min              =  -1.3263058656855E+00
(PID.TID 0000.0001) %MON dynstat_eta_mean             =  -1.7406301760904E-16
(PID.TID 0000.0001) %MON dynstat_eta_sd               =   4.5827645201638E-01
(PID.TID 0000.0001) %MON dynstat_eta_del2             =   1.9115645684364E-02
(PID.TID 0000.0001) %MON dynstat_uvel_max             =   1.9584670774987E-01
(PID.TID 0000.0001) %MON dynstat_uvel_min             =  -1.5777107846012E-01
(PID.TID 0000.0001) %MON dynstat_uvel_mean            =   1.0027130286170E-03
(PID.TID 0000.0001) %MON dynstat_uvel_sd              =   1.6270648886446E-02
(PID.TID 0000.0001) %MON dynstat_uvel_del2            =   4.9038355789082E-03
(PID.TID 0000.0001) %MON dynstat_vvel_max             =   1.7718250219066E-01
(PID.TID 0000.0001) %MON dynstat_vvel_min             =  -1.5070682885494E-01
(PID.TID 0000.0001) %MON dynstat_vvel_mean            =  -4.0833214508238E-04
(PID.TID 0000.0001) %MON dynstat_vvel_sd              =   1.5148255022592E-02
(PID.TID 0000.0001) %MON dynstat_vvel_del2            =   4.4545773068911E-03
(PID.TID 0000.0001) %MON dynstat_wvel_max             =   3.8845097014290E-04
(PID.TID 0000.0001) %MON dynstat_wvel_min             =  -2.2087084333800E-04
(PID.TID 0000.0001) %MON dynstat_wvel_mean            =   1.3720340884314E-22
(PID.TID 0000.0001) %MON dynstat_wvel_sd              =   2.2049644016302E-05
(PID.TID 0000.0001) %MON dynstat_wvel_del2            =   8.7370915363416E-06
(PID.TID 0000.0001) %MON dynstat_theta_max            =   2.9798290449573E+01
(PID.TID 0000.0001) %MON dynstat_theta_min            =  -1.9322574089235E+00
(PID.TID 0000.0001) %MON dynstat_theta_mean           =   3.5892006641988E+00
(PID.TID 0000.0001) %MON dynstat_theta_sd             =   4.3342594595115E+00
(PID.TID 0000.0001) %MON dynstat_theta_del2           =   1.2867828138540E-01
(PID.TID 0000.0001) %MON dynstat_salt_max             =   3.7393012762736E+01
(PID.TID 0000.0001) %MON dynstat_salt_min             =   2.9743139001954E+01
(PID.TID 0000.0001) %MON dynstat_salt_mean            =   3.4715993921964E+01
(PID.TID 0000.0001) %MON dynstat_salt_sd              =   2.9368092774480E-01
(PID.TID 0000.0001) %MON dynstat_salt_del2            =   2.3182901104798E-02
(PID.TID 0000.0001) %MON advcfl_uvel_max              =   3.0222878245632E-02
(PID.TID 0000.0001) %MON advcfl_vvel_max              =   1.7211859254976E-02
(PID.TID 0000.0001) %MON advcfl_wvel_max              =   6.7435613203888E-02
(PID.TID 0000.0001) %MON advcfl_W_hf_max              =   6.5951900882988E-02
(PID.TID 0000.0001) %MON pe_b_mean                    =   2.6874245761231E-04
(PID.TID 0000.0001) %MON ke_max                       =   1.9441603091299E-02
(PID.TID 0000.0001) %MON ke_mean                      =   2.2382328461248E-04
(PID.TID 0000.0001) %MON ke_vol                       =   1.3226782436723E+18
(PID.TID 0000.0001) %MON vort_r_min                   =  -7.3564814345432E-07
(PID.TID 0000.0001) %MON vort_r_max                   =   7.2314597866849E-07
(PID.TID 0000.0001) %MON vort_a_mean                  =  -2.5205768033527E-05
(PID.TID 0000.0001) %MON vort_a_sd                    =   7.3403509047383E-05
(PID.TID 0000.0001) %MON vort_p_mean                  =  -3.1758667844013E-05
(PID.TID 0000.0001) %MON vort_p_sd                    =   1.3126265655360E-04
(PID.TID 0000.0001) %MON surfExpan_theta_mean         =   1.1336299089053E-05
(PID.TID 0000.0001) %MON surfExpan_salt_mean          =  -1.4077523381081E-07
(PID.TID 0000.0001) // =======================================================
(PID.TID 0000.0001) // End MONITOR dynamic field statistics
(PID.TID 0000.0001) // =======================================================
time,SST,SSS,fu,fv,Q,E-P,i0,i1,a,b =   3.8448E+06 -5.0702E-01  3.4426E+01 -1.4788E-02 -1.8296E-02  2.4090E+02  0.0000E+00     1     2  9.8333E-01  1.6667E-02
time,fu0,fu1,fu =   3.8448E+06 -3.5633E-02 -1.4435E-02 -1.4788E-02  9.8333E-01  1.6667E-02
 cg2d: Sum(rhs),rhsMax =  -1.68948188772333E-13  8.78736604911104E+00
(PID.TID 0000.0001)                    cg2d_init_res =    3.21097859227167E-01
(PID.TID 0000.0001)                       cg2d_iters =    24
(PID.TID 0000.0001)                         cg2d_res =    4.36149914481759E-14
(PID.TID 0000.0001) // =======================================================
(PID.TID 0000.0001) // Begin MONITOR dynamic field statistics
(PID.TID 0000.0001) // =======================================================
(PID.TID 0000.0001) %MON time_tsnumber                =                    90
(PID.TID 0000.0001) %MON time_secondsf                =   3.8880000000000E+06
(PID.TID 0000.0001) %MON dynstat_eta_max              =   9.8132113162225E-01
(PID.TID 0000.0001) %MON dynstat_eta_min              =  -1.3387101595549E+00
(PID.TID 0000.0001) %MON dynstat_eta_mean             =  -1.4619392011382E-16
(PID.TID 0000.0001) %MON dynstat_eta_sd               =   4.5908455061034E-01
(PID.TID 0000.0001) %MON dynstat_eta_del2             =   1.9038321621066E-02
(PID.TID 0000.0001) %MON dynstat_uvel_max             =   1.9069519713139E-01
(PID.TID 0000.0001) %MON dynstat_uvel_min             =  -1.5808062585802E-01
(PID.TID 0000.0001) %MON dynstat_uvel_mean            =   1.0044446280098E-03
(PID.TID 0000.0001) %MON dynstat_uvel_sd              =   1.6080743718527E-02
(PID.TID 0000.0001) %MON dynstat_uvel_del2            =   4.8997109782894E-03
(PID.TID 0000.0001) %MON dynstat_vvel_max             =   1.7580083524360E-01
(PID.TID 0000.0001) %MON dynstat_vvel_min             =  -1.5090181083675E-01
(PID.TID 0000.0001) %MON dynstat_vvel_mean            =  -3.1998526171635E-04
(PID.TID 0000.0001) %MON dynstat_vvel_sd              =   1.5112478911359E-02
(PID.TID 0000.0001) %MON dynstat_vvel_del2            =   4.4419941566046E-03
(PID.TID 0000.0001) %MON dynstat_wvel_max             =   3.8862626627352E-04
(PID.TID 0000.0001) %MON dynstat_wvel_min             =  -2.1757764333882E-04
(PID.TID 0000.0001) %MON dynstat_wvel_mean            =  -1.8957823709537E-22
(PID.TID 0000.0001) %MON dynstat_wvel_sd              =   2.1957961412034E-05
(PID.TID 0000.0001) %MON dynstat_wvel_del2            =   8.6885073258241E-06
(PID.TID 0000.0001) %MON dynstat_theta_max            =   2.9801026936004E+01
(PID.TID 0000.0001) %MON dynstat_theta_min            =  -1.9323019916590E+00
(PID.TID 0000.0001) %MON dynstat_theta_mean           =   3.5891298963592E+00
(PID.TID 0000.0001) %MON dynstat_theta_sd             =   4.3341274853101E+00
(PID.TID 0000.0001) %MON dynstat_theta_del2           =   1.2869208080996E-01
(PID.TID 0000.0001) %MON dynstat_salt_max             =   3.7392694596426E+01
(PID.TID 0000.0001) %MON dynstat_salt_min             =   2.9741239968096E+01
(PID.TID 0000.0001) %MON dynstat_salt_mean            =   3.4715995793177E+01
(PID.TID 0000.0001) %MON dynstat_salt_sd              =   2.9366342113350E-01
(PID.TID 0000.0001) %MON dynstat_salt_del2            =   2.3159299697048E-02
(PID.TID 0000.0001) %MON advcfl_uvel_max              =   3.0151970984286E-02
(PID.TID 0000.0001) %MON advcfl_vvel_max              =   1.7077641390706E-02
(PID.TID 0000.0001) %MON advcfl_wvel_max              =   7.7547695886109E-02
(PID.TID 0000.0001) %MON advcfl_W_hf_max              =   7.5342322333414E-02
(PID.TID 0000.0001) %MON pe_b_mean                    =   2.6969106352098E-04
(PID.TID 0000.0001) %MON ke_max                       =   1.8853914056773E-02
(PID.TID 0000.0001) %MON ke_mean                      =   2.2051877046584E-04
(PID.TID 0000.0001) %MON ke_vol                       =   1.3226782436723E+18
(PID.TID 0000.0001) %MON vort_r_min                   =  -7.2136501538648E-07
(PID.TID 0000.0001) %MON vort_r_max                   =   7.2000002443410E-07
(PID.TID 0000.0001) %MON vort_a_mean                  =  -2.5205768064977E-05
(PID.TID 0000.0001) %MON vort_a_sd                    =   7.3403505079418E-05
(PID.TID 0000.0001) %MON vort_p_mean                  =  -3.1758667883639E-05
(PID.TID 0000.0001) %MON vort_p_sd                    =   1.3126262092022E-04
(PID.TID 0000.0001) %MON surfExpan_theta_mean         =   1.0866829094671E-05
(PID.TID 0000.0001) %MON surfExpan_salt_mean          =  -1.6573988916250E-07
(PID.TID 0000.0001) // =======================================================
(PID.TID 0000.0001) // End MONITOR dynamic field statistics
(PID.TID 0000.0001) // =======================================================
 S/R EXTERNAL_FIELDS_LOAD: Reading new data  3888000. 90
(PID.TID 0000.0001)  MDSREADFIELD: opening global file: trenberth_taux.bin
(PID.TID 0000.0001)  MDSREADFIELD: opening global file: trenberth_taux.bin
(PID.TID 0000.0001)  MDSREADFIELD: opening global file: trenberth_tauy.bin
(PID.TID 0000.0001)  MDSREADFIELD: opening global file: trenberth_tauy.bin
(PID.TID 0000.0001)  MDSREADFIELD: opening global file: ncep_qnet.bin
(PID.TID 0000.0001)  MDSREADFIELD: opening global file: ncep_qnet.bin
(PID.TID 0000.0001)  MDSREADFIELD: opening global file: lev_sst.bin
(PID.TID 0000.0001)  MDSREADFIELD: opening global file: lev_sst.bin
(PID.TID 0000.0001)  MDSREADFIELD: opening global file: lev_sss.bin
(PID.TID 0000.0001)  MDSREADFIELD: opening global file: lev_sss.bin
time,SST,SSS,fu,fv,Q,E-P,i0,i1,a,b =   3.8880E+06 -5.3186E-01  3.4421E+01 -1.4435E-02 -1.7636E-02  2.4048E+02  0.0000E+00     2     3  0.0000E+00  1.0000E+00
time,fu0,fu1,fu =   3.8880E+06 -1.4435E-02 -2.7199E-02 -1.4435E-02  0.0000E+00  1.0000E+00
 cg2d: Sum(rhs),rhsMax =   1.81202275406633E-13  8.25636817401200E+00
(PID.TID 0000.0001)                    cg2d_init_res =    3.45114611947892E-01
(PID.TID 0000.0001)                       cg2d_iters =    24
(PID.TID 0000.0001)                         cg2d_res =    5.11144824199417E-14
(PID.TID 0000.0001) // =======================================================
(PID.TID 0000.0001) // Begin MONITOR dynamic field statistics
(PID.TID 0000.0001) // =======================================================
(PID.TID 0000.0001) %MON time_tsnumber                =                    91
(PID.TID 0000.0001) %MON time_secondsf                =   3.9312000000000E+06
(PID.TID 0000.0001) %MON dynstat_eta_max              =   9.2167338713828E-01
(PID.TID 0000.0001) %MON dynstat_eta_min              =  -1.3506284157714E+00
(PID.TID 0000.0001) %MON dynstat_eta_mean             =   8.3579478480704E-17
(PID.TID 0000.0001) %MON dynstat_eta_sd               =   4.5986487964851E-01
(PID.TID 0000.0001) %MON dynstat_eta_del2             =   1.8943281377662E-02
(PID.TID 0000.0001) %MON dynstat_uvel_max             =   1.8512923018953E-01
(PID.TID 0000.0001) %MON dynstat_uvel_min             =  -1.5821292127673E-01
(PID.TID 0000.0001) %MON dynstat_uvel_mean            =   1.0033226724629E-03
(PID.TID 0000.0001) %MON dynstat_uvel_sd              =   1.5906354941503E-02
(PID.TID 0000.0001) %MON dynstat_uvel_del2            =   4.8941958197395E-03
(PID.TID 0000.0001) %MON dynstat_vvel_max             =   1.7424416312994E-01
(PID.TID 0000.0001) %MON dynstat_vvel_min             =  -1.5103679365203E-01
(PID.TID 0000.0001) %MON dynstat_vvel_mean            =  -2.2989609211441E-04
(PID.TID 0000.0001) %MON dynstat_vvel_sd              =   1.5076224458199E-02
(PID.TID 0000.0001) %MON dynstat_vvel_del2            =   4.4283768626175E-03
(PID.TID 0000.0001) %MON dynstat_wvel_max             =   3.8862170201135E-04
(PID.TID 0000.0001) %MON dynstat_wvel_min             =  -2.1430758518283E-04
(PID.TID 0000.0001) %MON dynstat_wvel_mean            =  -9.1036960514458E-24
(PID.TID 0000.0001) %MON dynstat_wvel_sd              =   2.1865058292445E-05
(PID.TID 0000.0001) %MON dynstat_wvel_del2            =   8.6363615356817E-06
(PID.TID 0000.0001) %MON dynstat_theta_max            =   2.9803581083173E+01
(PID.TID 0000.0001) %MON dynstat_theta_min            =  -1.9323457375265E+00
(PID.TID 0000.0001) %MON dynstat_theta_mean           =   3.5890644656722E+00
(PID.TID 0000.0001) %MON dynstat_theta_sd             =   4.3340094635477E+00
(PID.TID 0000.0001) %MON dynstat_theta_del2           =   1.2870672758366E-01
(PID.TID 0000.0001) %MON dynstat_salt_max             =   3.7392353495023E+01
(PID.TID 0000.0001) %MON dynstat_salt_min             =   2.9739348049791E+01
(PID.TID 0000.0001) %MON dynstat_salt_mean            =   3.4715997731470E+01
(PID.TID 0000.0001) %MON dynstat_salt_sd              =   2.9364526316762E-01
(PID.TID 0000.0001) %MON dynstat_salt_del2            =   2.3134298994723E-02
(PID.TID 0000.0001) %MON advcfl_uvel_max              =   3.0078803976834E-02
(PID.TID 0000.0001) %MON advcfl_vvel_max              =   1.6926423177873E-02
(PID.TID 0000.0001) %MON advcfl_wvel_max              =   8.5892752056924E-02
(PID.TID 0000.0001) %MON advcfl_W_hf_max              =   8.2899076301048E-02
(PID.TID 0000.0001) %MON pe_b_mean                    =   2.7060865755560E-04
(PID.TID 0000.0001) %MON ke_max                       =   1.8198609560054E-02
(PID.TID 0000.0001) %MON ke_mean                      =   2.1746989276024E-04
(PID.TID 0000.0001) %MON ke_vol                       =   1.3226782436723E+18
(PID.TID 0000.0001) %MON vort_r_min                   =  -7.0797476116064E-07
(PID.TID 0000.0001) %MON vort_r_max                   =   7.1603621991737E-07
(PID.TID 0000.0001) %MON vort_a_mean                  =  -2.5205768098283E-05
(PID.TID 0000.0001) %MON vort_a_sd                    =   7.3403500446212E-05
(PID.TID 0000.0001) %MON vort_p_mean                  =  -3.1758667925603E-05
(PID.TID 0000.0001) %MON vort_p_sd                    =   1.3126258012874E-04
(PID.TID 0000.0001) %MON surfExpan_theta_mean         =   1.0397083439969E-05
(PID.TID 0000.0001) %MON surfExpan_salt_mean          =  -1.7827765459040E-07
(PID.TID 0000.0001) // =======================================================
(PID.TID 0000.0001) // End MONITOR dynamic field statistics
(PID.TID 0000.0001) // =======================================================
time,SST,SSS,fu,fv,Q,E-P,i0,i1,a,b =   3.9312E+06 -5.2606E-01  3.4424E+01 -1.4647E-02 -1.7351E-02  2.4006E+02  0.0000E+00     2     3  1.6667E-02  9.8333E-01
time,fu0,fu1,fu =   3.9312E+06 -1.4435E-02 -2.7199E-02 -1.4647E-02  1.6667E-02  9.8333E-01
 cg2d: Sum(rhs),rhsMax =   2.35103603252185E-13  7.68566250636756E+00
(PID.TID 0000.0001)                    cg2d_init_res =    3.72769256754776E-01
(PID.TID 0000.0001)                       cg2d_iters =    24
(PID.TID 0000.0001)                         cg2d_res =    5.81322406875883E-14
(PID.TID 0000.0001) // =======================================================
(PID.TID 0000.0001) // Begin MONITOR dynamic field statistics
(PID.TID 0000.0001) // =======================================================
(PID.TID 0000.0001) %MON time_tsnumber                =                    92
(PID.TID 0000.0001) %MON time_secondsf                =   3.9744000000000E+06
(PID.TID 0000.0001) %MON dynstat_eta_max              =   8.5761815613307E-01
(PID.TID 0000.0001) %MON dynstat_eta_min              =  -1.3615492585794E+00
(PID.TID 0000.0001) %MON dynstat_eta_mean             =  -9.8583208150747E-17
(PID.TID 0000.0001) %MON dynstat_eta_sd               =   4.6063836603145E-01
(PID.TID 0000.0001) %MON dynstat_eta_del2             =   1.8829247151723E-02
(PID.TID 0000.0001) %MON dynstat_uvel_max             =   1.7928007422881E-01
(PID.TID 0000.0001) %MON dynstat_uvel_min             =  -1.5818462682165E-01
(PID.TID 0000.0001) %MON dynstat_uvel_mean            =   9.9968526543597E-04
(PID.TID 0000.0001) %MON dynstat_uvel_sd              =   1.5749721131540E-02
(PID.TID 0000.0001) %MON dynstat_uvel_del2            =   4.8867500486084E-03
(PID.TID 0000.0001) %MON dynstat_vvel_max             =   1.7254668347689E-01
(PID.TID 0000.0001) %MON dynstat_vvel_min             =  -1.5109885775218E-01
(PID.TID 0000.0001) %MON dynstat_vvel_mean            =  -1.3768512109737E-04
(PID.TID 0000.0001) %MON dynstat_vvel_sd              =   1.5038664957492E-02
(PID.TID 0000.0001) %MON dynstat_vvel_del2            =   4.4124166719751E-03
(PID.TID 0000.0001) %MON dynstat_wvel_max             =   3.8841262582598E-04
(PID.TID 0000.0001) %MON dynstat_wvel_min             =  -2.1108466526539E-04
(PID.TID 0000.0001) %MON dynstat_wvel_mean            =   2.5779656563451E-23
(PID.TID 0000.0001) %MON dynstat_wvel_sd              =   2.1768601626660E-05
(PID.TID 0000.0001) %MON dynstat_wvel_del2            =   8.5813247477673E-06
(PID.TID 0000.0001) %MON dynstat_theta_max            =   2.9805945228048E+01
(PID.TID 0000.0001) %MON dynstat_theta_min            =  -1.9322044623726E+00
(PID.TID 0000.0001) %MON dynstat_theta_mean           =   3.5890037934295E+00
(PID.TID 0000.0001) %MON dynstat_theta_sd             =   4.3339033631920E+00
(PID.TID 0000.0001) %MON dynstat_theta_del2           =   1.2870400210202E-01
(PID.TID 0000.0001) %MON dynstat_salt_max             =   3.7391992543809E+01
(PID.TID 0000.0001) %MON dynstat_salt_min             =   2.9737464243634E+01
(PID.TID 0000.0001) %MON dynstat_salt_mean            =   3.4715999621462E+01
(PID.TID 0000.0001) %MON dynstat_salt_sd              =   2.9362624669306E-01
(PID.TID 0000.0001) %MON dynstat_salt_del2            =   2.3108447235829E-02
(PID.TID 0000.0001) %MON advcfl_uvel_max              =   3.0003121246388E-02
(PID.TID 0000.0001) %MON advcfl_vvel_max              =   1.6761526641730E-02
(PID.TID 0000.0001) %MON advcfl_wvel_max              =   9.2239532647503E-02
(PID.TID 0000.0001) %MON advcfl_W_hf_max              =   8.8533364477535E-02
(PID.TID 0000.0001) %MON pe_b_mean                    =   2.7151974318549E-04
(PID.TID 0000.0001) %MON ke_max                       =   1.7497690565945E-02
(PID.TID 0000.0001) %MON ke_mean                      =   2.1469088378720E-04
(PID.TID 0000.0001) %MON ke_vol                       =   1.3226782436723E+18
(PID.TID 0000.0001) %MON vort_r_min                   =  -6.9559892140459E-07
(PID.TID 0000.0001) %MON vort_r_max                   =   7.1140517967692E-07
(PID.TID 0000.0001) %MON vort_a_mean                  =  -2.5205768132533E-05
(PID.TID 0000.0001) %MON vort_a_sd                    =   7.3403495242700E-05
(PID.TID 0000.0001) %MON vort_p_mean                  =  -3.1758667968757E-05
(PID.TID 0000.0001) %MON vort_p_sd                    =   1.3126253425054E-04
(PID.TID 0000.0001) %MON surfExpan_theta_mean         =   9.9295313389747E-06
(PID.TID 0000.0001) %MON surfExpan_salt_mean          =  -1.8027196309376E-07
(PID.TID 0000.0001) // =======================================================
(PID.TID 0000.0001) // End MONITOR dynamic field statistics
(PID.TID 0000.0001) // =======================================================
time,SST,SSS,fu,fv,Q,E-P,i0,i1,a,b =   3.9744E+06 -5.2026E-01  3.4426E+01 -1.4860E-02 -1.7067E-02  2.3964E+02  0.0000E+00     2     3  3.3333E-02  9.6667E-01
time,fu0,fu1,fu =   3.9744E+06 -1.4435E-02 -2.7199E-02 -1.4860E-02  3.3333E-02  9.6667E-01
 cg2d: Sum(rhs),rhsMax =   3.92991195141690E-13  7.08797914347451E+00
(PID.TID 0000.0001)                    cg2d_init_res =    4.04130341022552E-01
(PID.TID 0000.0001)                       cg2d_iters =    24
(PID.TID 0000.0001)                         cg2d_res =    6.51790830596145E-14
(PID.TID 0000.0001) // =======================================================
(PID.TID 0000.0001) // Begin MONITOR dynamic field statistics
(PID.TID 0000.0001) // =======================================================
(PID.TID 0000.0001) %MON time_tsnumber                =                    93
(PID.TID 0000.0001) %MON time_secondsf                =   4.0176000000000E+06
(PID.TID 0000.0001) %MON dynstat_eta_max              =   7.9058004161047E-01
(PID.TID 0000.0001) %MON dynstat_eta_min              =  -1.3710427021312E+00
(PID.TID 0000.0001) %MON dynstat_eta_mean             =   1.1629784807322E-16
(PID.TID 0000.0001) %MON dynstat_eta_sd               =   4.6142342782520E-01
(PID.TID 0000.0001) %MON dynstat_eta_del2             =   1.8722836480444E-02
(PID.TID 0000.0001) %MON dynstat_uvel_max             =   1.7319419772070E-01
(PID.TID 0000.0001) %MON dynstat_uvel_min             =  -1.5801339579162E-01
(PID.TID 0000.0001) %MON dynstat_uvel_mean            =   9.9388882302565E-04
(PID.TID 0000.0001) %MON dynstat_uvel_sd              =   1.5612816020356E-02
(PID.TID 0000.0001) %MON dynstat_uvel_del2            =   4.8782877692054E-03
(PID.TID 0000.0001) %MON dynstat_vvel_max             =   1.7072796742028E-01
(PID.TID 0000.0001) %MON dynstat_vvel_min             =  -1.5107601785197E-01
(PID.TID 0000.0001) %MON dynstat_vvel_mean            =  -4.3116815648417E-05
(PID.TID 0000.0001) %MON dynstat_vvel_sd              =   1.4999199599112E-02
(PID.TID 0000.0001) %MON dynstat_vvel_del2            =   4.3946303927778E-03
(PID.TID 0000.0001) %MON dynstat_wvel_max             =   3.8797434760481E-04
(PID.TID 0000.0001) %MON dynstat_wvel_min             =  -2.0792967285233E-04
(PID.TID 0000.0001) %MON dynstat_wvel_mean            =   1.1708633871551E-22
(PID.TID 0000.0001) %MON dynstat_wvel_sd              =   2.1666861326685E-05
(PID.TID 0000.0001) %MON dynstat_wvel_del2            =   8.5212619702113E-06
(PID.TID 0000.0001) %MON dynstat_theta_max            =   2.9808199463194E+01
(PID.TID 0000.0001) %MON dynstat_theta_min            =  -1.9320859300956E+00
(PID.TID 0000.0001) %MON dynstat_theta_mean           =   3.5889479482008E+00
(PID.TID 0000.0001) %MON dynstat_theta_sd             =   4.3338089837761E+00
(PID.TID 0000.0001) %MON dynstat_theta_del2           =   1.2869579555320E-01
(PID.TID 0000.0001) %MON dynstat_salt_max             =   3.7391615253696E+01
(PID.TID 0000.0001) %MON dynstat_salt_min             =   2.9735589871201E+01
(PID.TID 0000.0001) %MON dynstat_salt_mean            =   3.4716001374742E+01
(PID.TID 0000.0001) %MON dynstat_salt_sd              =   2.9360592933884E-01
(PID.TID 0000.0001) %MON dynstat_salt_del2            =   2.3084544950496E-02
(PID.TID 0000.0001) %MON advcfl_uvel_max              =   2.9924615962574E-02
(PID.TID 0000.0001) %MON advcfl_vvel_max              =   1.6584852961179E-02
(PID.TID 0000.0001) %MON advcfl_wvel_max              =   9.6534884912538E-02
(PID.TID 0000.0001) %MON advcfl_W_hf_max              =   9.2194016499798E-02
(PID.TID 0000.0001) %MON pe_b_mean                    =   2.7244602912037E-04
(PID.TID 0000.0001) %MON ke_max                       =   1.7082727055315E-02
(PID.TID 0000.0001) %MON ke_mean                      =   2.1219506594336E-04
(PID.TID 0000.0001) %MON ke_vol                       =   1.3226782436723E+18
(PID.TID 0000.0001) %MON vort_r_min                   =  -6.8434488340312E-07
(PID.TID 0000.0001) %MON vort_r_max                   =   7.0617940282767E-07
(PID.TID 0000.0001) %MON vort_a_mean                  =  -2.5205768167625E-05
(PID.TID 0000.0001) %MON vort_a_sd                    =   7.3403489566800E-05
(PID.TID 0000.0001) %MON vort_p_mean                  =  -3.1758668012973E-05
(PID.TID 0000.0001) %MON vort_p_sd                    =   1.3126248348490E-04
(PID.TID 0000.0001) %MON surfExpan_theta_mean         =   9.4682519482093E-06
(PID.TID 0000.0001) %MON surfExpan_salt_mean          =  -1.7325268444645E-07
(PID.TID 0000.0001) // =======================================================
(PID.TID 0000.0001) // End MONITOR dynamic field statistics
(PID.TID 0000.0001) // =======================================================
time,SST,SSS,fu,fv,Q,E-P,i0,i1,a,b =   4.0176E+06 -5.1446E-01  3.4429E+01 -1.5073E-02 -1.6783E-02  2.3923E+02  0.0000E+00     2     3  5.0000E-02  9.5000E-01
time,fu0,fu1,fu =   4.0176E+06 -1.4435E-02 -2.7199E-02 -1.5073E-02  5.0000E-02  9.5000E-01
 cg2d: Sum(rhs),rhsMax =   2.79706813266500E-13  6.77027639680520E+00
(PID.TID 0000.0001)                    cg2d_init_res =    4.20314759875526E-01
(PID.TID 0000.0001)                       cg2d_iters =    24
(PID.TID 0000.0001)                         cg2d_res =    6.93432896656313E-14
(PID.TID 0000.0001) // =======================================================
(PID.TID 0000.0001) // Begin MONITOR dynamic field statistics
(PID.TID 0000.0001) // =======================================================
(PID.TID 0000.0001) %MON time_tsnumber                =                    94
(PID.TID 0000.0001) %MON time_secondsf                =   4.0608000000000E+06
(PID.TID 0000.0001) %MON dynstat_eta_max              =   7.6205428034337E-01
(PID.TID 0000.0001) %MON dynstat_eta_min              =  -1.3787835137157E+00
(PID.TID 0000.0001) %MON dynstat_eta_mean             =   1.6904547959125E-16
(PID.TID 0000.0001) %MON dynstat_eta_sd               =   4.6223510576144E-01
(PID.TID 0000.0001) %MON dynstat_eta_del2             =   1.8618848769848E-02
(PID.TID 0000.0001) %MON dynstat_uvel_max             =   1.6694453069128E-01
(PID.TID 0000.0001) %MON dynstat_uvel_min             =  -1.5771692253969E-01
(PID.TID 0000.0001) %MON dynstat_uvel_mean            =   9.8631868342285E-04
(PID.TID 0000.0001) %MON dynstat_uvel_sd              =   1.5497466900516E-02
(PID.TID 0000.0001) %MON dynstat_uvel_del2            =   4.8685147545025E-03
(PID.TID 0000.0001) %MON dynstat_vvel_max             =   1.6881301296558E-01
(PID.TID 0000.0001) %MON dynstat_vvel_min             =  -1.5095768942879E-01
(PID.TID 0000.0001) %MON dynstat_vvel_mean            =   5.3904586975561E-05
(PID.TID 0000.0001) %MON dynstat_vvel_sd              =   1.4957252662003E-02
(PID.TID 0000.0001) %MON dynstat_vvel_del2            =   4.3761785682971E-03
(PID.TID 0000.0001) %MON dynstat_wvel_max             =   3.8728265714446E-04
(PID.TID 0000.0001) %MON dynstat_wvel_min             =  -2.0486069379576E-04
(PID.TID 0000.0001) %MON dynstat_wvel_mean            =   2.3908695795743E-23
(PID.TID 0000.0001) %MON dynstat_wvel_sd              =   2.1558818003283E-05
(PID.TID 0000.0001) %MON dynstat_wvel_del2            =   8.4566683990340E-06
(PID.TID 0000.0001) %MON dynstat_theta_max            =   2.9810405219725E+01
(PID.TID 0000.0001) %MON dynstat_theta_min            =  -1.9319237838954E+00
(PID.TID 0000.0001) %MON dynstat_theta_mean           =   3.5888967880935E+00
(PID.TID 0000.0001) %MON dynstat_theta_sd             =   4.3337270120614E+00
(PID.TID 0000.0001) %MON dynstat_theta_del2           =   1.2874868141106E-01
(PID.TID 0000.0001) %MON dynstat_salt_max             =   3.7391224649549E+01
(PID.TID 0000.0001) %MON dynstat_salt_min             =   2.9733726466375E+01
(PID.TID 0000.0001) %MON dynstat_salt_mean            =   3.4716002923640E+01
(PID.TID 0000.0001) %MON dynstat_salt_sd              =   2.9358443381013E-01
(PID.TID 0000.0001) %MON dynstat_salt_del2            =   2.3073353065527E-02
(PID.TID 0000.0001) %MON advcfl_uvel_max              =   2.9842916136715E-02
(PID.TID 0000.0001) %MON advcfl_vvel_max              =   1.6398830491994E-02
(PID.TID 0000.0001) %MON advcfl_wvel_max              =   9.8758972258192E-02
(PID.TID 0000.0001) %MON advcfl_W_hf_max              =   9.3865803737398E-02
(PID.TID 0000.0001) %MON pe_b_mean                    =   2.7340537759179E-04
(PID.TID 0000.0001) %MON ke_max                       =   1.6804338316043E-02
(PID.TID 0000.0001) %MON ke_mean                      =   2.0999426122495E-04
(PID.TID 0000.0001) %MON ke_vol                       =   1.3226782436723E+18
(PID.TID 0000.0001) %MON vort_r_min                   =  -6.7418030302314E-07
(PID.TID 0000.0001) %MON vort_r_max                   =   7.0045621221622E-07
(PID.TID 0000.0001) %MON vort_a_mean                  =  -2.5205768203312E-05
(PID.TID 0000.0001) %MON vort_a_sd                    =   7.3403483527023E-05
(PID.TID 0000.0001) %MON vort_p_mean                  =  -3.1758668057938E-05
(PID.TID 0000.0001) %MON vort_p_sd                    =   1.3126242810433E-04
(PID.TID 0000.0001) %MON surfExpan_theta_mean         =   9.0178202026004E-06
(PID.TID 0000.0001) %MON surfExpan_salt_mean          =  -1.5905287618743E-07
(PID.TID 0000.0001) // =======================================================
(PID.TID 0000.0001) // End MONITOR dynamic field statistics
(PID.TID 0000.0001) // =======================================================
time,SST,SSS,fu,fv,Q,E-P,i0,i1,a,b =   4.0608E+06 -5.0866E-01  3.4432E+01 -1.5286E-02 -1.6498E-02  2.3881E+02  0.0000E+00     2     3  6.6667E-02  9.3333E-01
time,fu0,fu1,fu =   4.0608E+06 -1.4435E-02 -2.7199E-02 -1.5286E-02  6.6667E-02  9.3333E-01
 cg2d: Sum(rhs),rhsMax =   1.35225164399344E-13  6.73808727433738E+00
(PID.TID 0000.0001)                    cg2d_init_res =    4.16725850187356E-01
(PID.TID 0000.0001)                       cg2d_iters =    24
(PID.TID 0000.0001)                         cg2d_res =    7.13640609051073E-14
(PID.TID 0000.0001) // =======================================================
(PID.TID 0000.0001) // Begin MONITOR dynamic field statistics
(PID.TID 0000.0001) // =======================================================
(PID.TID 0000.0001) %MON time_tsnumber                =                    95
(PID.TID 0000.0001) %MON time_secondsf                =   4.1040000000000E+06
(PID.TID 0000.0001) %MON dynstat_eta_max              =   7.5854583538135E-01
(PID.TID 0000.0001) %MON dynstat_eta_min              =  -1.3845565096885E+00
(PID.TID 0000.0001) %MON dynstat_eta_mean             =   2.5172540595972E-16
(PID.TID 0000.0001) %MON dynstat_eta_sd               =   4.6308448645474E-01
(PID.TID 0000.0001) %MON dynstat_eta_del2             =   1.8593137259542E-02
(PID.TID 0000.0001) %MON dynstat_uvel_max             =   1.6420561475035E-01
(PID.TID 0000.0001) %MON dynstat_uvel_min             =  -1.5731220584756E-01
(PID.TID 0000.0001) %MON dynstat_uvel_mean            =   9.7737531869248E-04
(PID.TID 0000.0001) %MON dynstat_uvel_sd              =   1.5405217279753E-02
(PID.TID 0000.0001) %MON dynstat_uvel_del2            =   4.8572440943046E-03
(PID.TID 0000.0001) %MON dynstat_vvel_max             =   1.6685093499748E-01
(PID.TID 0000.0001) %MON dynstat_vvel_min             =  -1.5073509334547E-01
(PID.TID 0000.0001) %MON dynstat_vvel_mean            =   1.5331996432477E-04
(PID.TID 0000.0001) %MON dynstat_vvel_sd              =   1.4912418064317E-02
(PID.TID 0000.0001) %MON dynstat_vvel_del2            =   4.3577870386077E-03
(PID.TID 0000.0001) %MON dynstat_wvel_max             =   3.8631506410539E-04
(PID.TID 0000.0001) %MON dynstat_wvel_min             =  -2.0189368074285E-04
(PID.TID 0000.0001) %MON dynstat_wvel_mean            =   1.2743376925089E-22
(PID.TID 0000.0001) %MON dynstat_wvel_sd              =   2.1444131463676E-05
(PID.TID 0000.0001) %MON dynstat_wvel_del2            =   8.3929997129937E-06
(PID.TID 0000.0001) %MON dynstat_theta_max            =   2.9812625411849E+01
(PID.TID 0000.0001) %MON dynstat_theta_min            =  -1.9317129280166E+00
(PID.TID 0000.0001) %MON dynstat_theta_mean           =   3.5888501713181E+00
(PID.TID 0000.0001) %MON dynstat_theta_sd             =   4.3336578010168E+00
(PID.TID 0000.0001) %MON dynstat_theta_del2           =   1.2875300175555E-01
(PID.TID 0000.0001) %MON dynstat_salt_max             =   3.7390823420831E+01
(PID.TID 0000.0001) %MON dynstat_salt_min             =   2.9731875812595E+01
(PID.TID 0000.0001) %MON dynstat_salt_mean            =   3.4716004226539E+01
(PID.TID 0000.0001) %MON dynstat_salt_sd              =   2.9356245008820E-01
(PID.TID 0000.0001) %MON dynstat_salt_del2            =   2.3047702998312E-02
(PID.TID 0000.0001) %MON advcfl_uvel_max              =   2.9757553329361E-02
(PID.TID 0000.0001) %MON advcfl_vvel_max              =   1.6208230351367E-02
(PID.TID 0000.0001) %MON advcfl_wvel_max              =   9.9039968012922E-02
(PID.TID 0000.0001) %MON advcfl_W_hf_max              =   9.3570757408616E-02
(PID.TID 0000.0001) %MON pe_b_mean                    =   2.7441109355395E-04
(PID.TID 0000.0001) %MON ke_max                       =   1.6507193212508E-02
(PID.TID 0000.0001) %MON ke_mean                      =   2.0809916434705E-04
(PID.TID 0000.0001) %MON ke_vol                       =   1.3226782436723E+18
(PID.TID 0000.0001) %MON vort_r_min                   =  -6.6509603935476E-07
(PID.TID 0000.0001) %MON vort_r_max                   =   6.9433068484040E-07
(PID.TID 0000.0001) %MON vort_a_mean                  =  -2.5205768239386E-05
(PID.TID 0000.0001) %MON vort_a_sd                    =   7.3403477237971E-05
(PID.TID 0000.0001) %MON vort_p_mean                  =  -3.1758668103390E-05
(PID.TID 0000.0001) %MON vort_p_sd                    =   1.3126236847020E-04
(PID.TID 0000.0001) %MON surfExpan_theta_mean         =   8.5794991348120E-06
(PID.TID 0000.0001) %MON surfExpan_salt_mean          =  -1.3999241632644E-07
(PID.TID 0000.0001) // =======================================================
(PID.TID 0000.0001) // End MONITOR dynamic field statistics
(PID.TID 0000.0001) // =======================================================
time,SST,SSS,fu,fv,Q,E-P,i0,i1,a,b =   4.1040E+06 -5.0286E-01  3.4434E+01 -1.5498E-02 -1.6214E-02  2.3839E+02  0.0000E+00     2     3  8.3333E-02  9.1667E-01
time,fu0,fu1,fu =   4.1040E+06 -1.4435E-02 -2.7199E-02 -1.5498E-02  8.3333E-02  9.1667E-01
 cg2d: Sum(rhs),rhsMax =  -5.04110642118860E-13  6.70168372125866E+00
(PID.TID 0000.0001)                    cg2d_init_res =    4.10693252581125E-01
(PID.TID 0000.0001)                       cg2d_iters =    24
(PID.TID 0000.0001)                         cg2d_res =    7.16653437316423E-14
(PID.TID 0000.0001) // =======================================================
(PID.TID 0000.0001) // Begin MONITOR dynamic field statistics
(PID.TID 0000.0001) // =======================================================
(PID.TID 0000.0001) %MON time_tsnumber                =                    96
(PID.TID 0000.0001) %MON time_secondsf                =   4.1472000000000E+06
(PID.TID 0000.0001) %MON dynstat_eta_max              =   7.5463243108881E-01
(PID.TID 0000.0001) %MON dynstat_eta_min              =  -1.3882559374759E+00
(PID.TID 0000.0001) %MON dynstat_eta_mean             =  -1.3080737562866E-16
(PID.TID 0000.0001) %MON dynstat_eta_sd               =   4.6397846738301E-01
(PID.TID 0000.0001) %MON dynstat_eta_del2             =   1.8630327987828E-02
(PID.TID 0000.0001) %MON dynstat_uvel_max             =   1.6264508761351E-01
(PID.TID 0000.0001) %MON dynstat_uvel_min             =  -1.5681493520587E-01
(PID.TID 0000.0001) %MON dynstat_uvel_mean            =   9.6746426314900E-04
(PID.TID 0000.0001) %MON dynstat_uvel_sd              =   1.5337214368702E-02
(PID.TID 0000.0001) %MON dynstat_uvel_del2            =   4.8442146940046E-03
(PID.TID 0000.0001) %MON dynstat_vvel_max             =   1.6716089325812E-01
(PID.TID 0000.0001) %MON dynstat_vvel_min             =  -1.5040165296439E-01
(PID.TID 0000.0001) %MON dynstat_vvel_mean            =   2.5490707569162E-04
(PID.TID 0000.0001) %MON dynstat_vvel_sd              =   1.4864528616073E-02
(PID.TID 0000.0001) %MON dynstat_vvel_del2            =   4.3386065421468E-03
(PID.TID 0000.0001) %MON dynstat_wvel_max             =   3.8505178195764E-04
(PID.TID 0000.0001) %MON dynstat_wvel_min             =  -1.9904255133115E-04
(PID.TID 0000.0001) %MON dynstat_wvel_mean            =   1.6074950414315E-22
(PID.TID 0000.0001) %MON dynstat_wvel_sd              =   2.1323276263830E-05
(PID.TID 0000.0001) %MON dynstat_wvel_del2            =   8.3295772077826E-06
(PID.TID 0000.0001) %MON dynstat_theta_max            =   2.9814921533094E+01
(PID.TID 0000.0001) %MON dynstat_theta_min            =  -1.9314502186109E+00
(PID.TID 0000.0001) %MON dynstat_theta_mean           =   3.5888078685742E+00
(PID.TID 0000.0001) %MON dynstat_theta_sd             =   4.3336007782906E+00
(PID.TID 0000.0001) %MON dynstat_theta_del2           =   1.2879755285887E-01
(PID.TID 0000.0001) %MON dynstat_salt_max             =   3.7390413940301E+01
(PID.TID 0000.0001) %MON dynstat_salt_min             =   2.9730039888252E+01
(PID.TID 0000.0001) %MON dynstat_salt_mean            =   3.4716005260765E+01
(PID.TID 0000.0001) %MON dynstat_salt_sd              =   2.9353906493361E-01
(PID.TID 0000.0001) %MON dynstat_salt_del2            =   2.3027230274319E-02
(PID.TID 0000.0001) %MON advcfl_uvel_max              =   2.9667977297505E-02
(PID.TID 0000.0001) %MON advcfl_vvel_max              =   1.6238340310822E-02
(PID.TID 0000.0001) %MON advcfl_wvel_max              =   9.7361744982536E-02
(PID.TID 0000.0001) %MON advcfl_W_hf_max              =   9.1366613199983E-02
(PID.TID 0000.0001) %MON pe_b_mean                    =   2.7547161310848E-04
(PID.TID 0000.0001) %MON ke_max                       =   1.6196408906838E-02
(PID.TID 0000.0001) %MON ke_mean                      =   2.0651905081005E-04
(PID.TID 0000.0001) %MON ke_vol                       =   1.3226782436723E+18
(PID.TID 0000.0001) %MON vort_r_min                   =  -6.7303814585675E-07
(PID.TID 0000.0001) %MON vort_r_max                   =   6.8789310829036E-07
(PID.TID 0000.0001) %MON vort_a_mean                  =  -2.5205768275685E-05
(PID.TID 0000.0001) %MON vort_a_sd                    =   7.3403470816904E-05
(PID.TID 0000.0001) %MON vort_p_mean                  =  -3.1758668149126E-05
(PID.TID 0000.0001) %MON vort_p_sd                    =   1.3126230500316E-04
(PID.TID 0000.0001) %MON surfExpan_theta_mean         =   8.1557424535260E-06
(PID.TID 0000.0001) %MON surfExpan_salt_mean          =  -1.1783912706904E-07
(PID.TID 0000.0001) // =======================================================
(PID.TID 0000.0001) // End MONITOR dynamic field statistics
(PID.TID 0000.0001) // =======================================================
time,SST,SSS,fu,fv,Q,E-P,i0,i1,a,b =   4.1472E+06 -4.9706E-01  3.4437E+01 -1.5711E-02 -1.5930E-02  2.3797E+02  0.0000E+00     2     3  1.0000E-01  9.0000E-01
time,fu0,fu1,fu =   4.1472E+06 -1.4435E-02 -2.7199E-02 -1.5711E-02  1.0000E-01  9.0000E-01
 cg2d: Sum(rhs),rhsMax =  -1.94871896397331E-13  6.66306748055686E+00
(PID.TID 0000.0001)                    cg2d_init_res =    4.02429548708244E-01
(PID.TID 0000.0001)                       cg2d_iters =    24
(PID.TID 0000.0001)                         cg2d_res =    7.13283271108225E-14
(PID.TID 0000.0001) // =======================================================
(PID.TID 0000.0001) // Begin MONITOR dynamic field statistics
(PID.TID 0000.0001) // =======================================================
(PID.TID 0000.0001) %MON time_tsnumber                =                    97
(PID.TID 0000.0001) %MON time_secondsf                =   4.1904000000000E+06
(PID.TID 0000.0001) %MON dynstat_eta_max              =   7.5130225459491E-01
(PID.TID 0000.0001) %MON dynstat_eta_min              =  -1.3898790857337E+00
(PID.TID 0000.0001) %MON dynstat_eta_mean             =  -1.3375562560799E-16
(PID.TID 0000.0001) %MON dynstat_eta_sd               =   4.6491988224764E-01
(PID.TID 0000.0001) %MON dynstat_eta_del2             =   1.8696226807991E-02
(PID.TID 0000.0001) %MON dynstat_uvel_max             =   1.6044860758392E-01
(PID.TID 0000.0001) %MON dynstat_uvel_min             =  -1.5623899096933E-01
(PID.TID 0000.0001) %MON dynstat_uvel_mean            =   9.5698597850653E-04
(PID.TID 0000.0001) %MON dynstat_uvel_sd              =   1.5294099806290E-02
(PID.TID 0000.0001) %MON dynstat_uvel_del2            =   4.8305781921563E-03
(PID.TID 0000.0001) %MON dynstat_vvel_max             =   1.6730297421611E-01
(PID.TID 0000.0001) %MON dynstat_vvel_min             =  -1.4995320334524E-01
(PID.TID 0000.0001) %MON dynstat_vvel_mean            =   3.5828387881256E-04
(PID.TID 0000.0001) %MON dynstat_vvel_sd              =   1.4813705181277E-02
(PID.TID 0000.0001) %MON dynstat_vvel_del2            =   4.3183926821136E-03
(PID.TID 0000.0001) %MON dynstat_wvel_max             =   3.8347632824970E-04
(PID.TID 0000.0001) %MON dynstat_wvel_min             =  -1.9731892788710E-04
(PID.TID 0000.0001) %MON dynstat_wvel_mean            =  -1.6665828171120E-22
(PID.TID 0000.0001) %MON dynstat_wvel_sd              =   2.1197424027651E-05
(PID.TID 0000.0001) %MON dynstat_wvel_del2            =   8.2648028205881E-06
(PID.TID 0000.0001) %MON dynstat_theta_max            =   2.9817350850943E+01
(PID.TID 0000.0001) %MON dynstat_theta_min            =  -1.9311346053379E+00
(PID.TID 0000.0001) %MON dynstat_theta_mean           =   3.5887697148624E+00
(PID.TID 0000.0001) %MON dynstat_theta_sd             =   4.3335563097807E+00
(PID.TID 0000.0001) %MON dynstat_theta_del2           =   1.2885675735004E-01
(PID.TID 0000.0001) %MON dynstat_salt_max             =   3.7389999865632E+01
(PID.TID 0000.0001) %MON dynstat_salt_min             =   2.9728220804747E+01
(PID.TID 0000.0001) %MON dynstat_salt_mean            =   3.4716006029607E+01
(PID.TID 0000.0001) %MON dynstat_salt_sd              =   2.9351494589132E-01
(PID.TID 0000.0001) %MON dynstat_salt_del2            =   2.3001631728766E-02
(PID.TID 0000.0001) %MON advcfl_uvel_max              =   2.9573534729807E-02
(PID.TID 0000.0001) %MON advcfl_vvel_max              =   1.6252142336538E-02
(PID.TID 0000.0001) %MON advcfl_wvel_max              =   9.3810024405596E-02
(PID.TID 0000.0001) %MON advcfl_W_hf_max              =   8.7345664895192E-02
(PID.TID 0000.0001) %MON pe_b_mean                    =   2.7659061402653E-04
(PID.TID 0000.0001) %MON ke_max                       =   1.5876728501809E-02
(PID.TID 0000.0001) %MON ke_mean                      =   2.0526118978229E-04
(PID.TID 0000.0001) %MON ke_vol                       =   1.3226782436723E+18
(PID.TID 0000.0001) %MON vort_r_min                   =  -6.8922627588853E-07
(PID.TID 0000.0001) %MON vort_r_max                   =   6.8122669297858E-07
(PID.TID 0000.0001) %MON vort_a_mean                  =  -2.5205768312084E-05
(PID.TID 0000.0001) %MON vort_a_sd                    =   7.3403464380484E-05
(PID.TID 0000.0001) %MON vort_p_mean                  =  -3.1758668194988E-05
(PID.TID 0000.0001) %MON vort_p_sd                    =   1.3126223818047E-04
(PID.TID 0000.0001) %MON surfExpan_theta_mean         =   7.7471010278189E-06
(PID.TID 0000.0001) %MON surfExpan_salt_mean          =  -9.4622705992695E-08
(PID.TID 0000.0001) // =======================================================
(PID.TID 0000.0001) // End MONITOR dynamic field statistics
(PID.TID 0000.0001) // =======================================================
time,SST,SSS,fu,fv,Q,E-P,i0,i1,a,b =   4.1904E+06 -4.9126E-01  3.4440E+01 -1.5924E-02 -1.5646E-02  2.3755E+02  0.0000E+00     2     3  1.1667E-01  8.8333E-01
time,fu0,fu1,fu =   4.1904E+06 -1.4435E-02 -2.7199E-02 -1.5924E-02  1.1667E-01  8.8333E-01
 cg2d: Sum(rhs),rhsMax =   3.61072283183717E-13  6.62464365882069E+00
(PID.TID 0000.0001)                    cg2d_init_res =    3.92361405166562E-01
(PID.TID 0000.0001)                       cg2d_iters =    24
(PID.TID 0000.0001)                         cg2d_res =    7.06016354948416E-14
(PID.TID 0000.0001) // =======================================================
(PID.TID 0000.0001) // Begin MONITOR dynamic field statistics
(PID.TID 0000.0001) // =======================================================
(PID.TID 0000.0001) %MON time_tsnumber                =                    98
(PID.TID 0000.0001) %MON time_secondsf                =   4.2336000000000E+06
(PID.TID 0000.0001) %MON dynstat_eta_max              =   7.7912952113476E-01
(PID.TID 0000.0001) %MON dynstat_eta_min              =  -1.3895152328229E+00
(PID.TID 0000.0001) %MON dynstat_eta_mean             =   5.6777566803220E-17
(PID.TID 0000.0001) %MON dynstat_eta_sd               =   4.6590795934980E-01
(PID.TID 0000.0001) %MON dynstat_eta_del2             =   1.8756557896199E-02
(PID.TID 0000.0001) %MON dynstat_uvel_max             =   1.5765073727794E-01
(PID.TID 0000.0001) %MON dynstat_uvel_min             =  -1.5559606200583E-01
(PID.TID 0000.0001) %MON dynstat_uvel_mean            =   9.4632782699126E-04
(PID.TID 0000.0001) %MON dynstat_uvel_sd              =   1.5275912163057E-02
(PID.TID 0000.0001) %MON dynstat_uvel_del2            =   4.8153182169944E-03
(PID.TID 0000.0001) %MON dynstat_vvel_max             =   1.6727476221542E-01
(PID.TID 0000.0001) %MON dynstat_vvel_min             =  -1.4938819192457E-01
(PID.TID 0000.0001) %MON dynstat_vvel_mean            =   4.6291821167306E-04
(PID.TID 0000.0001) %MON dynstat_vvel_sd              =   1.4760380714907E-02
(PID.TID 0000.0001) %MON dynstat_vvel_del2            =   4.2980225331675E-03
(PID.TID 0000.0001) %MON dynstat_wvel_max             =   3.8157622256499E-04
(PID.TID 0000.0001) %MON dynstat_wvel_min             =  -1.9690816306267E-04
(PID.TID 0000.0001) %MON dynstat_wvel_mean            =   3.3672280846726E-22
(PID.TID 0000.0001) %MON dynstat_wvel_sd              =   2.1068332919496E-05
(PID.TID 0000.0001) %MON dynstat_wvel_del2            =   8.1939738501000E-06
(PID.TID 0000.0001) %MON dynstat_theta_max            =   2.9819963670579E+01
(PID.TID 0000.0001) %MON dynstat_theta_min            =  -1.9307670895309E+00
(PID.TID 0000.0001) %MON dynstat_theta_mean           =   3.5887354833987E+00
(PID.TID 0000.0001) %MON dynstat_theta_sd             =   4.3335251646371E+00
(PID.TID 0000.0001) %MON dynstat_theta_del2           =   1.2884697573679E-01
(PID.TID 0000.0001) %MON dynstat_salt_max             =   3.7389583288971E+01
(PID.TID 0000.0001) %MON dynstat_salt_min             =   2.9726420739616E+01
(PID.TID 0000.0001) %MON dynstat_salt_mean            =   3.4716006551092E+01
(PID.TID 0000.0001) %MON dynstat_salt_sd              =   2.9349012144655E-01
(PID.TID 0000.0001) %MON dynstat_salt_del2            =   2.2974753690960E-02
(PID.TID 0000.0001) %MON advcfl_uvel_max              =   2.9473489392116E-02
(PID.TID 0000.0001) %MON advcfl_vvel_max              =   1.6249401766904E-02
(PID.TID 0000.0001) %MON advcfl_wvel_max              =   8.8509127975165E-02
(PID.TID 0000.0001) %MON advcfl_W_hf_max              =   8.1633328351513E-02
(PID.TID 0000.0001) %MON pe_b_mean                    =   2.7776751900503E-04
(PID.TID 0000.0001) %MON ke_max                       =   1.5683259607429E-02
(PID.TID 0000.0001) %MON ke_mean                      =   2.0432995746957E-04
(PID.TID 0000.0001) %MON ke_vol                       =   1.3226782436723E+18
(PID.TID 0000.0001) %MON vort_r_min                   =  -7.0510622223919E-07
(PID.TID 0000.0001) %MON vort_r_max                   =   6.7440572989476E-07
(PID.TID 0000.0001) %MON vort_a_mean                  =  -2.5205768348487E-05
(PID.TID 0000.0001) %MON vort_a_sd                    =   7.3403458041866E-05
(PID.TID 0000.0001) %MON vort_p_mean                  =  -3.1758668240855E-05
(PID.TID 0000.0001) %MON vort_p_sd                    =   1.3126216852614E-04
(PID.TID 0000.0001) %MON surfExpan_theta_mean         =   7.3534597822603E-06
(PID.TID 0000.0001) %MON surfExpan_salt_mean          =  -7.2250766615242E-08
(PID.TID 0000.0001) // =======================================================
(PID.TID 0000.0001) // End MONITOR dynamic field statistics
(PID.TID 0000.0001) // =======================================================
time,SST,SSS,fu,fv,Q,E-P,i0,i1,a,b =   4.2336E+06 -4.8546E-01  3.4442E+01 -1.6137E-02 -1.5361E-02  2.3714E+02  0.0000E+00     2     3  1.3333E-01  8.6667E-01
time,fu0,fu1,fu =   4.2336E+06 -1.4435E-02 -2.7199E-02 -1.6137E-02  1.3333E-01  8.6667E-01
 cg2d: Sum(rhs),rhsMax =  -3.90076859702049E-13  6.75051834843116E+00
(PID.TID 0000.0001)                    cg2d_init_res =    3.72014775342046E-01
(PID.TID 0000.0001)                       cg2d_iters =    24
(PID.TID 0000.0001)                         cg2d_res =    6.81350873088586E-14
(PID.TID 0000.0001) // =======================================================
(PID.TID 0000.0001) // Begin MONITOR dynamic field statistics
(PID.TID 0000.0001) // =======================================================
(PID.TID 0000.0001) %MON time_tsnumber                =                    99
(PID.TID 0000.0001) %MON time_secondsf                =   4.2768000000000E+06
(PID.TID 0000.0001) %MON dynstat_eta_max              =   8.0296703500982E-01
(PID.TID 0000.0001) %MON dynstat_eta_min              =  -1.3873312953886E+00
(PID.TID 0000.0001) %MON dynstat_eta_mean             =  -4.1024772917656E-17
(PID.TID 0000.0001) %MON dynstat_eta_sd               =   4.6693904656733E-01
(PID.TID 0000.0001) %MON dynstat_eta_del2             =   1.8828488722967E-02
(PID.TID 0000.0001) %MON dynstat_uvel_max             =   1.5428999568582E-01
(PID.TID 0000.0001) %MON dynstat_uvel_min             =  -1.5489539838882E-01
(PID.TID 0000.0001) %MON dynstat_uvel_mean            =   9.3585502335292E-04
(PID.TID 0000.0001) %MON dynstat_uvel_sd              =   1.5282014768498E-02
(PID.TID 0000.0001) %MON dynstat_uvel_del2            =   4.7989076111990E-03
(PID.TID 0000.0001) %MON dynstat_vvel_max             =   1.6707365726382E-01
(PID.TID 0000.0001) %MON dynstat_vvel_min             =  -1.4870779761627E-01
(PID.TID 0000.0001) %MON dynstat_vvel_mean            =   5.6814096684596E-04
(PID.TID 0000.0001) %MON dynstat_vvel_sd              =   1.4705298270043E-02
(PID.TID 0000.0001) %MON dynstat_vvel_del2            =   4.2776186401705E-03
(PID.TID 0000.0001) %MON dynstat_wvel_max             =   3.7934339976010E-04
(PID.TID 0000.0001) %MON dynstat_wvel_min             =  -1.9636188032064E-04
(PID.TID 0000.0001) %MON dynstat_wvel_mean            =   6.1090394161593E-22
(PID.TID 0000.0001) %MON dynstat_wvel_sd              =   2.0938110823631E-05
(PID.TID 0000.0001) %MON dynstat_wvel_del2            =   8.1189642338179E-06
(PID.TID 0000.0001) %MON dynstat_theta_max            =   2.9822800823085E+01
(PID.TID 0000.0001) %MON dynstat_theta_min            =  -1.9303399568383E+00
(PID.TID 0000.0001) %MON dynstat_theta_mean           =   3.5887050195674E+00
(PID.TID 0000.0001) %MON dynstat_theta_sd             =   4.3335070303544E+00
(PID.TID 0000.0001) %MON dynstat_theta_del2           =   1.2883181114973E-01
(PID.TID 0000.0001) %MON dynstat_salt_max             =   3.7389164839185E+01
(PID.TID 0000.0001) %MON dynstat_salt_min             =   2.9724641874443E+01
(PID.TID 0000.0001) %MON dynstat_salt_mean            =   3.4716006865895E+01
(PID.TID 0000.0001) %MON dynstat_salt_sd              =   2.9346445214756E-01
(PID.TID 0000.0001) %MON dynstat_salt_del2            =   2.2947860303916E-02
(PID.TID 0000.0001) %MON advcfl_uvel_max              =   2.9367040928186E-02
(PID.TID 0000.0001) %MON advcfl_vvel_max              =   1.6229866033524E-02
(PID.TID 0000.0001) %MON advcfl_wvel_max              =   8.1616081739013E-02
(PID.TID 0000.0001) %MON advcfl_W_hf_max              =   7.4386831320652E-02
(PID.TID 0000.0001) %MON pe_b_mean                    =   2.7899831769417E-04
(PID.TID 0000.0001) %MON ke_max                       =   1.5581506349407E-02
(PID.TID 0000.0001) %MON ke_mean                      =   2.0372577593425E-04
(PID.TID 0000.0001) %MON ke_vol                       =   1.3226782436723E+18
(PID.TID 0000.0001) %MON vort_r_min                   =  -7.2051851759233E-07
(PID.TID 0000.0001) %MON vort_r_max                   =   6.6749429947418E-07
(PID.TID 0000.0001) %MON vort_a_mean                  =  -2.5205768384827E-05
(PID.TID 0000.0001) %MON vort_a_sd                    =   7.3403451907442E-05
(PID.TID 0000.0001) %MON vort_p_mean                  =  -3.1758668286642E-05
(PID.TID 0000.0001) %MON vort_p_sd                    =   1.3126209659778E-04
(PID.TID 0000.0001) %MON surfExpan_theta_mean         =   6.9739147251937E-06
(PID.TID 0000.0001) %MON surfExpan_salt_mean          =  -5.2263568745028E-08
(PID.TID 0000.0001) // =======================================================
(PID.TID 0000.0001) // End MONITOR dynamic field statistics
(PID.TID 0000.0001) // =======================================================
time,SST,SSS,fu,fv,Q,E-P,i0,i1,a,b =   4.2768E+06 -4.7966E-01  3.4445E+01 -1.6349E-02 -1.5077E-02  2.3672E+02  0.0000E+00     2     3  1.5000E-01  8.5000E-01
time,fu0,fu1,fu =   4.2768E+06 -1.4435E-02 -2.7199E-02 -1.6349E-02  1.5000E-01  8.5000E-01
 cg2d: Sum(rhs),rhsMax =   7.71049890602171E-13  6.91710521994793E+00
(PID.TID 0000.0001)                    cg2d_init_res =    3.50442391449299E-01
(PID.TID 0000.0001)                       cg2d_iters =    24
(PID.TID 0000.0001)                         cg2d_res =    6.56674145773217E-14
(PID.TID 0000.0001) // =======================================================
(PID.TID 0000.0001) // Begin MONITOR dynamic field statistics
(PID.TID 0000.0001) // =======================================================
(PID.TID 0000.0001) %MON time_tsnumber                =                   100
(PID.TID 0000.0001) %MON time_secondsf                =   4.3200000000000E+06
(PID.TID 0000.0001) %MON dynstat_eta_max              =   8.2237369601198E-01
(PID.TID 0000.0001) %MON dynstat_eta_min              =  -1.3835551981582E+00
(PID.TID 0000.0001) %MON dynstat_eta_mean             =   1.1305676163666E-16
(PID.TID 0000.0001) %MON dynstat_eta_sd               =   4.6800754384926E-01
(PID.TID 0000.0001) %MON dynstat_eta_del2             =   1.8914424295083E-02
(PID.TID 0000.0001) %MON dynstat_uvel_max             =   1.5040824179485E-01
(PID.TID 0000.0001) %MON dynstat_uvel_min             =  -1.5414371669936E-01
(PID.TID 0000.0001) %MON dynstat_uvel_mean            =   9.2590352401804E-04
(PID.TID 0000.0001) %MON dynstat_uvel_sd              =   1.5311066813641E-02
(PID.TID 0000.0001) %MON dynstat_uvel_del2            =   4.7819418719003E-03
(PID.TID 0000.0001) %MON dynstat_vvel_max             =   1.6669696659667E-01
(PID.TID 0000.0001) %MON dynstat_vvel_min             =  -1.4791579547408E-01
(PID.TID 0000.0001) %MON dynstat_vvel_mean            =   6.7316982629182E-04
(PID.TID 0000.0001) %MON dynstat_vvel_sd              =   1.4649474669292E-02
(PID.TID 0000.0001) %MON dynstat_vvel_del2            =   4.2580565742192E-03
(PID.TID 0000.0001) %MON dynstat_wvel_max             =   3.7677459176578E-04
(PID.TID 0000.0001) %MON dynstat_wvel_min             =  -1.9567832510830E-04
(PID.TID 0000.0001) %MON dynstat_wvel_mean            =   1.4274773797001E-23
(PID.TID 0000.0001) %MON dynstat_wvel_sd              =   2.0809079846044E-05
(PID.TID 0000.0001) %MON dynstat_wvel_del2            =   8.0431044281285E-06
(PID.TID 0000.0001) %MON dynstat_theta_max            =   2.9825894021738E+01
(PID.TID 0000.0001) %MON dynstat_theta_min            =  -1.9298641012420E+00
(PID.TID 0000.0001) %MON dynstat_theta_mean           =   3.5886781732567E+00
(PID.TID 0000.0001) %MON dynstat_theta_sd             =   4.3335019840478E+00
(PID.TID 0000.0001) %MON dynstat_theta_del2           =   1.2880576891799E-01
(PID.TID 0000.0001) %MON dynstat_salt_max             =   3.7388745171155E+01
(PID.TID 0000.0001) %MON dynstat_salt_min             =   2.9722886340485E+01
(PID.TID 0000.0001) %MON dynstat_salt_mean            =   3.4716007026755E+01
(PID.TID 0000.0001) %MON dynstat_salt_sd              =   2.9343801149716E-01
(PID.TID 0000.0001) %MON dynstat_salt_del2            =   2.2919367264867E-02
(PID.TID 0000.0001) %MON advcfl_uvel_max              =   2.9253337165381E-02
(PID.TID 0000.0001) %MON advcfl_vvel_max              =   1.6193273555906E-02
(PID.TID 0000.0001) %MON advcfl_wvel_max              =   7.3317945064223E-02
(PID.TID 0000.0001) %MON advcfl_W_hf_max              =   6.5792498600077E-02
(PID.TID 0000.0001) %MON pe_b_mean                    =   2.8027664311104E-04
(PID.TID 0000.0001) %MON ke_max                       =   1.5468495212358E-02
(PID.TID 0000.0001) %MON ke_mean                      =   2.0344400114209E-04
(PID.TID 0000.0001) %MON ke_vol                       =   1.3226782436723E+18
(PID.TID 0000.0001) %MON vort_r_min                   =  -7.3531717184841E-07
(PID.TID 0000.0001) %MON vort_r_max                   =   6.6054553781820E-07
(PID.TID 0000.0001) %MON vort_a_mean                  =  -2.5205768421057E-05
(PID.TID 0000.0001) %MON vort_a_sd                    =   7.3403446074058E-05
(PID.TID 0000.0001) %MON vort_p_mean                  =  -3.1758668332292E-05
(PID.TID 0000.0001) %MON vort_p_sd                    =   1.3126202297252E-04
(PID.TID 0000.0001) %MON surfExpan_theta_mean         =   6.6066825917568E-06
(PID.TID 0000.0001) %MON surfExpan_salt_mean          =  -3.6092224522812E-08
(PID.TID 0000.0001) // =======================================================
(PID.TID 0000.0001) // End MONITOR dynamic field statistics
(PID.TID 0000.0001) // =======================================================
time,SST,SSS,fu,fv,Q,E-P,i0,i1,a,b =   4.3200E+06 -4.7386E-01  3.4447E+01 -1.6562E-02 -1.4793E-02  2.3630E+02  0.0000E+00     2     3  1.6667E-01  8.3333E-01
time,fu0,fu1,fu =   4.3200E+06 -1.4435E-02 -2.7199E-02 -1.6562E-02  1.6667E-01  8.3333E-01
 cg2d: Sum(rhs),rhsMax =  -9.35737598517505E-13  7.04306639496478E+00
(PID.TID 0000.0001)                    cg2d_init_res =    3.32878860221291E-01
(PID.TID 0000.0001)                       cg2d_iters =    24
(PID.TID 0000.0001)                         cg2d_res =    6.40804407696111E-14
(PID.TID 0000.0001) // =======================================================
(PID.TID 0000.0001) // Begin MONITOR dynamic field statistics
(PID.TID 0000.0001) // =======================================================
(PID.TID 0000.0001) %MON time_tsnumber                =                   101
(PID.TID 0000.0001) %MON time_secondsf                =   4.3632000000000E+06
(PID.TID 0000.0001) %MON dynstat_eta_max              =   8.3706712528257E-01
(PID.TID 0000.0001) %MON dynstat_eta_min              =  -1.3784580721531E+00
(PID.TID 0000.0001) %MON dynstat_eta_mean             =   5.6511874133978E-17
(PID.TID 0000.0001) %MON dynstat_eta_sd               =   4.6910690136529E-01
(PID.TID 0000.0001) %MON dynstat_eta_del2             =   1.8980265259118E-02
(PID.TID 0000.0001) %MON dynstat_uvel_max             =   1.4848386215421E-01
(PID.TID 0000.0001) %MON dynstat_uvel_min             =  -1.5334525211003E-01
(PID.TID 0000.0001) %MON dynstat_uvel_mean            =   9.1677404710730E-04
(PID.TID 0000.0001) %MON dynstat_uvel_sd              =   1.5361038812470E-02
(PID.TID 0000.0001) %MON dynstat_uvel_del2            =   4.7645200525430E-03
(PID.TID 0000.0001) %MON dynstat_vvel_max             =   1.6614203018729E-01
(PID.TID 0000.0001) %MON dynstat_vvel_min             =  -1.4701841746039E-01
(PID.TID 0000.0001) %MON dynstat_vvel_mean            =   7.7713346029242E-04
(PID.TID 0000.0001) %MON dynstat_vvel_sd              =   1.4594139159184E-02
(PID.TID 0000.0001) %MON dynstat_vvel_del2            =   4.2409196664099E-03
(PID.TID 0000.0001) %MON dynstat_wvel_max             =   3.7387142346835E-04
(PID.TID 0000.0001) %MON dynstat_wvel_min             =  -1.9485786091447E-04
(PID.TID 0000.0001) %MON dynstat_wvel_mean            =  -5.8753514268199E-22
(PID.TID 0000.0001) %MON dynstat_wvel_sd              =   2.0683496347248E-05
(PID.TID 0000.0001) %MON dynstat_wvel_del2            =   7.9674720427298E-06
(PID.TID 0000.0001) %MON dynstat_theta_max            =   2.9829260965515E+01
(PID.TID 0000.0001) %MON dynstat_theta_min            =  -1.9293508720814E+00
(PID.TID 0000.0001) %MON dynstat_theta_mean           =   3.5886548464671E+00
(PID.TID 0000.0001) %MON dynstat_theta_sd             =   4.3335098714699E+00
(PID.TID 0000.0001) %MON dynstat_theta_del2           =   1.2877150793126E-01
(PID.TID 0000.0001) %MON dynstat_salt_max             =   3.7388324520460E+01
(PID.TID 0000.0001) %MON dynstat_salt_min             =   2.9721156175385E+01
(PID.TID 0000.0001) %MON dynstat_salt_mean            =   3.4716007097743E+01
(PID.TID 0000.0001) %MON dynstat_salt_sd              =   2.9341080217140E-01
(PID.TID 0000.0001) %MON dynstat_salt_del2            =   2.2891625813589E-02
(PID.TID 0000.0001) %MON advcfl_uvel_max              =   2.9131502106382E-02
(PID.TID 0000.0001) %MON advcfl_vvel_max              =   1.6139365933790E-02
(PID.TID 0000.0001) %MON advcfl_wvel_max              =   6.8343291330904E-02
(PID.TID 0000.0001) %MON advcfl_W_hf_max              =   6.3420070770723E-02
(PID.TID 0000.0001) %MON pe_b_mean                    =   2.8159493865010E-04
(PID.TID 0000.0001) %MON ke_max                       =   1.5407198819597E-02
(PID.TID 0000.0001) %MON ke_mean                      =   2.0347391390634E-04
(PID.TID 0000.0001) %MON ke_vol                       =   1.3226782436723E+18
(PID.TID 0000.0001) %MON vort_r_min                   =  -7.4937161669726E-07
(PID.TID 0000.0001) %MON vort_r_max                   =   6.5360144390670E-07
(PID.TID 0000.0001) %MON vort_a_mean                  =  -2.5205768457152E-05
(PID.TID 0000.0001) %MON vort_a_sd                    =   7.3403440626695E-05
(PID.TID 0000.0001) %MON vort_p_mean                  =  -3.1758668377770E-05
(PID.TID 0000.0001) %MON vort_p_sd                    =   1.3126194824895E-04
(PID.TID 0000.0001) %MON surfExpan_theta_mean         =   6.2493556105761E-06
(PID.TID 0000.0001) %MON surfExpan_salt_mean          =  -2.4928972644236E-08
(PID.TID 0000.0001) // =======================================================
(PID.TID 0000.0001) // End MONITOR dynamic field statistics
(PID.TID 0000.0001) // =======================================================
time,SST,SSS,fu,fv,Q,E-P,i0,i1,a,b =   4.3632E+06 -4.6807E-01  3.4450E+01 -1.6775E-02 -1.4508E-02  2.3588E+02  0.0000E+00     2     3  1.8333E-01  8.1667E-01
time,fu0,fu1,fu =   4.3632E+06 -1.4435E-02 -2.7199E-02 -1.6775E-02  1.8333E-01  8.1667E-01
 cg2d: Sum(rhs),rhsMax =  -3.29430926981900E-13  7.12733482688012E+00
(PID.TID 0000.0001)                    cg2d_init_res =    3.19783144659070E-01
(PID.TID 0000.0001)                       cg2d_iters =    24
(PID.TID 0000.0001)                         cg2d_res =    6.30925760410395E-14
(PID.TID 0000.0001) // =======================================================
(PID.TID 0000.0001) // Begin MONITOR dynamic field statistics
(PID.TID 0000.0001) // =======================================================
(PID.TID 0000.0001) %MON time_tsnumber                =                   102
(PID.TID 0000.0001) %MON time_secondsf                =   4.4064000000000E+06
(PID.TID 0000.0001) %MON dynstat_eta_max              =   8.4692456602684E-01
(PID.TID 0000.0001) %MON dynstat_eta_min              =  -1.3723362888809E+00
(PID.TID 0000.0001) %MON dynstat_eta_mean             =  -4.2002305121817E-17
(PID.TID 0000.0001) %MON dynstat_eta_sd               =   4.7023057060063E-01
(PID.TID 0000.0001) %MON dynstat_eta_del2             =   1.9038233394617E-02
(PID.TID 0000.0001) %MON dynstat_uvel_max             =   1.5522111452764E-01
(PID.TID 0000.0001) %MON dynstat_uvel_min             =  -1.5250194628540E-01
(PID.TID 0000.0001) %MON dynstat_uvel_mean            =   9.0872519906692E-04
(PID.TID 0000.0001) %MON dynstat_uvel_sd              =   1.5429281414464E-02
(PID.TID 0000.0001) %MON dynstat_uvel_del2            =   4.7467865829941E-03
(PID.TID 0000.0001) %MON dynstat_vvel_max             =   1.6540636295644E-01
(PID.TID 0000.0001) %MON dynstat_vvel_min             =  -1.4602399637395E-01
(PID.TID 0000.0001) %MON dynstat_vvel_mean            =   8.7909919830955E-04
(PID.TID 0000.0001) %MON dynstat_vvel_sd              =   1.4540645061969E-02
(PID.TID 0000.0001) %MON dynstat_vvel_del2            =   4.2262943788684E-03
(PID.TID 0000.0001) %MON dynstat_wvel_max             =   3.7064094702326E-04
(PID.TID 0000.0001) %MON dynstat_wvel_min             =  -1.9390283811219E-04
(PID.TID 0000.0001) %MON dynstat_wvel_mean            =  -8.5592207648016E-23
(PID.TID 0000.0001) %MON dynstat_wvel_sd              =   2.0563291608019E-05
(PID.TID 0000.0001) %MON dynstat_wvel_del2            =   7.8985497339335E-06
(PID.TID 0000.0001) %MON dynstat_theta_max            =   2.9832902999723E+01
(PID.TID 0000.0001) %MON dynstat_theta_min            =  -1.9288069003854E+00
(PID.TID 0000.0001) %MON dynstat_theta_mean           =   3.5886349152910E+00
(PID.TID 0000.0001) %MON dynstat_theta_sd             =   4.3335304970479E+00
(PID.TID 0000.0001) %MON dynstat_theta_del2           =   1.2873184041449E-01
(PID.TID 0000.0001) %MON dynstat_salt_max             =   3.7387902755713E+01
(PID.TID 0000.0001) %MON dynstat_salt_min             =   2.9719453292934E+01
(PID.TID 0000.0001) %MON dynstat_salt_mean            =   3.4716007151626E+01
(PID.TID 0000.0001) %MON dynstat_salt_sd              =   2.9338279013390E-01
(PID.TID 0000.0001) %MON dynstat_salt_del2            =   2.2862796703193E-02
(PID.TID 0000.0001) %MON advcfl_uvel_max              =   2.9000680016698E-02
(PID.TID 0000.0001) %MON advcfl_vvel_max              =   1.6067901761655E-02
(PID.TID 0000.0001) %MON advcfl_wvel_max              =   6.8907848219243E-02
(PID.TID 0000.0001) %MON advcfl_W_hf_max              =   6.5483303561056E-02
(PID.TID 0000.0001) %MON pe_b_mean                    =   2.8294558403288E-04
(PID.TID 0000.0001) %MON ke_max                       =   1.5334532203509E-02
(PID.TID 0000.0001) %MON ke_mean                      =   2.0379797149120E-04
(PID.TID 0000.0001) %MON ke_vol                       =   1.3226782436723E+18
(PID.TID 0000.0001) %MON vort_r_min                   =  -7.6256815080055E-07
(PID.TID 0000.0001) %MON vort_r_max                   =   6.4669321295613E-07
(PID.TID 0000.0001) %MON vort_a_mean                  =  -2.5205768493097E-05
(PID.TID 0000.0001) %MON vort_a_sd                    =   7.3403435636160E-05
(PID.TID 0000.0001) %MON vort_p_mean                  =  -3.1758668423060E-05
(PID.TID 0000.0001) %MON vort_p_sd                    =   1.3126187301470E-04
(PID.TID 0000.0001) %MON surfExpan_theta_mean         =   5.8992474188625E-06
(PID.TID 0000.0001) %MON surfExpan_salt_mean          =  -1.9743569575516E-08
(PID.TID 0000.0001) // =======================================================
(PID.TID 0000.0001) // End MONITOR dynamic field statistics
(PID.TID 0000.0001) // =======================================================
time,SST,SSS,fu,fv,Q,E-P,i0,i1,a,b =   4.4064E+06 -4.6227E-01  3.4453E+01 -1.6988E-02 -1.4224E-02  2.3546E+02  0.0000E+00     2     3  2.0000E-01  8.0000E-01
time,fu0,fu1,fu =   4.4064E+06 -1.4435E-02 -2.7199E-02 -1.6988E-02  2.0000E-01  8.0000E-01
 cg2d: Sum(rhs),rhsMax =  -3.75435793564804E-13  7.17018469691021E+00
(PID.TID 0000.0001)                    cg2d_init_res =    3.11468171261660E-01
(PID.TID 0000.0001)                       cg2d_iters =    24
(PID.TID 0000.0001)                         cg2d_res =    6.21261885109318E-14
(PID.TID 0000.0001) // =======================================================
(PID.TID 0000.0001) // Begin MONITOR dynamic field statistics
(PID.TID 0000.0001) // =======================================================
(PID.TID 0000.0001) %MON time_tsnumber                =                   103
(PID.TID 0000.0001) %MON time_secondsf                =   4.4496000000000E+06
(PID.TID 0000.0001) %MON dynstat_eta_max              =   8.5197894118433E-01
(PID.TID 0000.0001) %MON dynstat_eta_min              =  -1.3654940042856E+00
(PID.TID 0000.0001) %MON dynstat_eta_mean             =  -4.8134707641064E-20
(PID.TID 0000.0001) %MON dynstat_eta_sd               =   4.7137276822495E-01
(PID.TID 0000.0001) %MON dynstat_eta_del2             =   1.9091443962163E-02
(PID.TID 0000.0001) %MON dynstat_uvel_max             =   1.6188541155304E-01
(PID.TID 0000.0001) %MON dynstat_uvel_min             =  -1.5161375241428E-01
(PID.TID 0000.0001) %MON dynstat_uvel_mean            =   9.0197169774485E-04
(PID.TID 0000.0001) %MON dynstat_uvel_sd              =   1.5512639512736E-02
(PID.TID 0000.0001) %MON dynstat_uvel_del2            =   4.7306309910472E-03
(PID.TID 0000.0001) %MON dynstat_vvel_max             =   1.6448780189208E-01
(PID.TID 0000.0001) %MON dynstat_vvel_min             =  -1.4494274103618E-01
(PID.TID 0000.0001) %MON dynstat_vvel_mean            =   9.7810789990981E-04
(PID.TID 0000.0001) %MON dynstat_vvel_sd              =   1.4490367442659E-02
(PID.TID 0000.0001) %MON dynstat_vvel_del2            =   4.2142513174052E-03
(PID.TID 0000.0001) %MON dynstat_wvel_max             =   3.6709503069758E-04
(PID.TID 0000.0001) %MON dynstat_wvel_min             =  -1.9281723911582E-04
(PID.TID 0000.0001) %MON dynstat_wvel_mean            =  -3.1698289840555E-23
(PID.TID 0000.0001) %MON dynstat_wvel_sd              =   2.0449954237847E-05
(PID.TID 0000.0001) %MON dynstat_wvel_del2            =   7.8373836451379E-06
(PID.TID 0000.0001) %MON dynstat_theta_max            =   2.9836902322556E+01
(PID.TID 0000.0001) %MON dynstat_theta_min            =  -1.9282383830818E+00
(PID.TID 0000.0001) %MON dynstat_theta_mean           =   3.5886183283404E+00
(PID.TID 0000.0001) %MON dynstat_theta_sd             =   4.3335639567649E+00
(PID.TID 0000.0001) %MON dynstat_theta_del2           =   1.2867516694564E-01
(PID.TID 0000.0001) %MON dynstat_salt_max             =   3.7387479449686E+01
(PID.TID 0000.0001) %MON dynstat_salt_min             =   2.9717779464648E+01
(PID.TID 0000.0001) %MON dynstat_salt_mean            =   3.4716007267626E+01
(PID.TID 0000.0001) %MON dynstat_salt_sd              =   2.9335407439161E-01
(PID.TID 0000.0001) %MON dynstat_salt_del2            =   2.2832690338241E-02
(PID.TID 0000.0001) %MON advcfl_uvel_max              =   2.8860070835725E-02
(PID.TID 0000.0001) %MON advcfl_vvel_max              =   1.5978670920227E-02
(PID.TID 0000.0001) %MON advcfl_wvel_max              =   6.8820441287580E-02
(PID.TID 0000.0001) %MON advcfl_W_hf_max              =   6.7096137939487E-02
(PID.TID 0000.0001) %MON pe_b_mean                    =   2.8432181220077E-04
(PID.TID 0000.0001) %MON ke_max                       =   1.5249804743111E-02
(PID.TID 0000.0001) %MON ke_mean                      =   2.0439148121481E-04
(PID.TID 0000.0001) %MON ke_vol                       =   1.3226782436723E+18
(PID.TID 0000.0001) %MON vort_r_min                   =  -7.7481088973294E-07
(PID.TID 0000.0001) %MON vort_r_max                   =   6.3984205886813E-07
(PID.TID 0000.0001) %MON vort_a_mean                  =  -2.5205768528889E-05
(PID.TID 0000.0001) %MON vort_a_sd                    =   7.3403431157870E-05
(PID.TID 0000.0001) %MON vort_p_mean                  =  -3.1758668468157E-05
(PID.TID 0000.0001) %MON vort_p_sd                    =   1.3126179786690E-04
(PID.TID 0000.0001) %MON surfExpan_theta_mean         =   5.5552288726666E-06
(PID.TID 0000.0001) %MON surfExpan_salt_mean          =  -2.0839362399610E-08
(PID.TID 0000.0001) // =======================================================
(PID.TID 0000.0001) // End MONITOR dynamic field statistics
(PID.TID 0000.0001) // =======================================================
time,SST,SSS,fu,fv,Q,E-P,i0,i1,a,b =   4.4496E+06 -4.5647E-01  3.4455E+01 -1.7200E-02 -1.3940E-02  2.3505E+02  0.0000E+00     2     3  2.1667E-01  7.8333E-01
time,fu0,fu1,fu =   4.4496E+06 -1.4435E-02 -2.7199E-02 -1.7200E-02  2.1667E-01  7.8333E-01
 cg2d: Sum(rhs),rhsMax =   4.18137746649450E-14  7.17315919559949E+00
(PID.TID 0000.0001)                    cg2d_init_res =    3.07999271900043E-01
(PID.TID 0000.0001)                       cg2d_iters =    24
(PID.TID 0000.0001)                         cg2d_res =    5.77459383637632E-14
(PID.TID 0000.0001) // =======================================================
(PID.TID 0000.0001) // Begin MONITOR dynamic field statistics
(PID.TID 0000.0001) // =======================================================
(PID.TID 0000.0001) %MON time_tsnumber                =                   104
(PID.TID 0000.0001) %MON time_secondsf                =   4.4928000000000E+06
(PID.TID 0000.0001) %MON dynstat_eta_max              =   8.5241027800082E-01
(PID.TID 0000.0001) %MON dynstat_eta_min              =  -1.3729011341728E+00
(PID.TID 0000.0001) %MON dynstat_eta_mean             =  -1.8244819561326E-17
(PID.TID 0000.0001) %MON dynstat_eta_sd               =   4.7252901082825E-01
(PID.TID 0000.0001) %MON dynstat_eta_del2             =   1.9132593197335E-02
(PID.TID 0000.0001) %MON dynstat_uvel_max             =   1.6836053193157E-01
(PID.TID 0000.0001) %MON dynstat_uvel_min             =  -1.5067903485525E-01
(PID.TID 0000.0001) %MON dynstat_uvel_mean            =   8.9667861299239E-04
(PID.TID 0000.0001) %MON dynstat_uvel_sd              =   1.5607608423144E-02
(PID.TID 0000.0001) %MON dynstat_uvel_del2            =   4.7164671712364E-03
(PID.TID 0000.0001) %MON dynstat_vvel_max             =   1.6338465278978E-01
(PID.TID 0000.0001) %MON dynstat_vvel_min             =  -1.4378633503412E-01
(PID.TID 0000.0001) %MON dynstat_vvel_mean            =   1.0732039631245E-03
(PID.TID 0000.0001) %MON dynstat_vvel_sd              =   1.4444587562522E-02
(PID.TID 0000.0001) %MON dynstat_vvel_del2            =   4.2044586247617E-03
(PID.TID 0000.0001) %MON dynstat_wvel_max             =   3.6325013067995E-04
(PID.TID 0000.0001) %MON dynstat_wvel_min             =  -1.9160679027239E-04
(PID.TID 0000.0001) %MON dynstat_wvel_mean            =   1.8938043413467E-22
(PID.TID 0000.0001) %MON dynstat_wvel_sd              =   2.0344216130152E-05
(PID.TID 0000.0001) %MON dynstat_wvel_del2            =   7.7820029731151E-06
(PID.TID 0000.0001) %MON dynstat_theta_max            =   2.9841194096683E+01
(PID.TID 0000.0001) %MON dynstat_theta_min            =  -1.9276514967215E+00
(PID.TID 0000.0001) %MON dynstat_theta_mean           =   3.5886050707534E+00
(PID.TID 0000.0001) %MON dynstat_theta_sd             =   4.3336100887301E+00
(PID.TID 0000.0001) %MON dynstat_theta_del2           =   1.2861012330874E-01
(PID.TID 0000.0001) %MON dynstat_salt_max             =   3.7387053969176E+01
(PID.TID 0000.0001) %MON dynstat_salt_min             =   2.9716136313587E+01
(PID.TID 0000.0001) %MON dynstat_salt_mean            =   3.4716007520208E+01
(PID.TID 0000.0001) %MON dynstat_salt_sd              =   2.9332475705282E-01
(PID.TID 0000.0001) %MON dynstat_salt_del2            =   2.2802807291648E-02
(PID.TID 0000.0001) %MON advcfl_uvel_max              =   2.8708964355108E-02
(PID.TID 0000.0001) %MON advcfl_vvel_max              =   1.5871508831130E-02
(PID.TID 0000.0001) %MON advcfl_wvel_max              =   6.8123349063291E-02
(PID.TID 0000.0001) %MON advcfl_W_hf_max              =   6.8232884562701E-02
(PID.TID 0000.0001) %MON pe_b_mean                    =   2.8571836375444E-04
(PID.TID 0000.0001) %MON ke_max                       =   1.5152392543631E-02
(PID.TID 0000.0001) %MON ke_mean                      =   2.0522275215793E-04
(PID.TID 0000.0001) %MON ke_vol                       =   1.3226782436723E+18
(PID.TID 0000.0001) %MON vort_r_min                   =  -7.8602224026777E-07
(PID.TID 0000.0001) %MON vort_r_max                   =   6.3306044707195E-07
(PID.TID 0000.0001) %MON vort_a_mean                  =  -2.5205768564534E-05
(PID.TID 0000.0001) %MON vort_a_sd                    =   7.3403427230420E-05
(PID.TID 0000.0001) %MON vort_p_mean                  =  -3.1758668513069E-05
(PID.TID 0000.0001) %MON vort_p_sd                    =   1.3126172336365E-04
(PID.TID 0000.0001) %MON surfExpan_theta_mean         =   5.2146777441876E-06
(PID.TID 0000.0001) %MON surfExpan_salt_mean          =  -2.8644178302669E-08
(PID.TID 0000.0001) // =======================================================
(PID.TID 0000.0001) // End MONITOR dynamic field statistics
(PID.TID 0000.0001) // =======================================================
time,SST,SSS,fu,fv,Q,E-P,i0,i1,a,b =   4.4928E+06 -4.5067E-01  3.4458E+01 -1.7413E-02 -1.3655E-02  2.3463E+02  0.0000E+00     2     3  2.3333E-01  7.6667E-01
time,fu0,fu1,fu =   4.4928E+06 -1.4435E-02 -2.7199E-02 -1.7413E-02  2.3333E-01  7.6667E-01
 cg2d: Sum(rhs),rhsMax =  -5.18154963380368E-13  7.13896069301318E+00
(PID.TID 0000.0001)                    cg2d_init_res =    3.09116107456839E-01
(PID.TID 0000.0001)                       cg2d_iters =    24
(PID.TID 0000.0001)                         cg2d_res =    5.33335870463425E-14
(PID.TID 0000.0001) // =======================================================
(PID.TID 0000.0001) // Begin MONITOR dynamic field statistics
(PID.TID 0000.0001) // =======================================================
(PID.TID 0000.0001) %MON time_tsnumber                =                   105
(PID.TID 0000.0001) %MON time_secondsf                =   4.5360000000000E+06
(PID.TID 0000.0001) %MON dynstat_eta_max              =   8.4853278699885E-01
(PID.TID 0000.0001) %MON dynstat_eta_min              =  -1.3876067243997E+00
(PID.TID 0000.0001) %MON dynstat_eta_mean             =  -5.3622012491244E-17
(PID.TID 0000.0001) %MON dynstat_eta_sd               =   4.7369632608817E-01
(PID.TID 0000.0001) %MON dynstat_eta_del2             =   1.9132218114773E-02
(PID.TID 0000.0001) %MON dynstat_uvel_max             =   1.7453506326407E-01
(PID.TID 0000.0001) %MON dynstat_uvel_min             =  -1.4969497635937E-01
(PID.TID 0000.0001) %MON dynstat_uvel_mean            =   8.9296035266952E-04
(PID.TID 0000.0001) %MON dynstat_uvel_sd              =   1.5710509950311E-02
(PID.TID 0000.0001) %MON dynstat_uvel_del2            =   4.7030451098797E-03
(PID.TID 0000.0001) %MON dynstat_vvel_max             =   1.6209584309813E-01
(PID.TID 0000.0001) %MON dynstat_vvel_min             =  -1.4256750088517E-01
(PID.TID 0000.0001) %MON dynstat_vvel_mean            =   1.1634685955379E-03
(PID.TID 0000.0001) %MON dynstat_vvel_sd              =   1.4404385824821E-02
(PID.TID 0000.0001) %MON dynstat_vvel_del2            =   4.1968177976341E-03
(PID.TID 0000.0001) %MON dynstat_wvel_max             =   3.5912686346187E-04
(PID.TID 0000.0001) %MON dynstat_wvel_min             =  -1.9027851841331E-04
(PID.TID 0000.0001) %MON dynstat_wvel_mean            =   3.0271760512868E-22
(PID.TID 0000.0001) %MON dynstat_wvel_sd              =   2.0246079647217E-05
(PID.TID 0000.0001) %MON dynstat_wvel_del2            =   7.7292737730954E-06
(PID.TID 0000.0001) %MON dynstat_theta_max            =   2.9845722875596E+01
(PID.TID 0000.0001) %MON dynstat_theta_min            =  -1.9270545401700E+00
(PID.TID 0000.0001) %MON dynstat_theta_mean           =   3.5885950933706E+00
(PID.TID 0000.0001) %MON dynstat_theta_sd             =   4.3336688203623E+00
(PID.TID 0000.0001) %MON dynstat_theta_del2           =   1.2853751822737E-01
(PID.TID 0000.0001) %MON dynstat_salt_max             =   3.7386625573832E+01
(PID.TID 0000.0001) %MON dynstat_salt_min             =   2.9714525300187E+01
(PID.TID 0000.0001) %MON dynstat_salt_mean            =   3.4716007986655E+01
(PID.TID 0000.0001) %MON dynstat_salt_sd              =   2.9329485647961E-01
(PID.TID 0000.0001) %MON dynstat_salt_del2            =   2.2771992318940E-02
(PID.TID 0000.0001) %MON advcfl_uvel_max              =   2.8845027545416E-02
(PID.TID 0000.0001) %MON advcfl_vvel_max              =   1.5746311304598E-02
(PID.TID 0000.0001) %MON advcfl_wvel_max              =   6.6865259060141E-02
(PID.TID 0000.0001) %MON advcfl_W_hf_max              =   6.8865994153637E-02
(PID.TID 0000.0001) %MON pe_b_mean                    =   2.8713176000866E-04
(PID.TID 0000.0001) %MON ke_max                       =   1.5041760877290E-02
(PID.TID 0000.0001) %MON ke_mean                      =   2.0625380506316E-04
(PID.TID 0000.0001) %MON ke_vol                       =   1.3226782436723E+18
(PID.TID 0000.0001) %MON vort_r_min                   =  -7.9614296015697E-07
(PID.TID 0000.0001) %MON vort_r_max                   =   6.2635353073686E-07
(PID.TID 0000.0001) %MON vort_a_mean                  =  -2.5205768600034E-05
(PID.TID 0000.0001) %MON vort_a_sd                    =   7.3403423875322E-05
(PID.TID 0000.0001) %MON vort_p_mean                  =  -3.1758668557799E-05
(PID.TID 0000.0001) %MON vort_p_sd                    =   1.3126165004181E-04
(PID.TID 0000.0001) %MON surfExpan_theta_mean         =   4.8759387758558E-06
(PID.TID 0000.0001) %MON surfExpan_salt_mean          =  -4.3228837715025E-08
(PID.TID 0000.0001) // =======================================================
(PID.TID 0000.0001) // End MONITOR dynamic field statistics
(PID.TID 0000.0001) // =======================================================
time,SST,SSS,fu,fv,Q,E-P,i0,i1,a,b =   4.5360E+06 -4.4487E-01  3.4461E+01 -1.7626E-02 -1.3371E-02  2.3421E+02  0.0000E+00     2     3  2.5000E-01  7.5000E-01
time,fu0,fu1,fu =   4.5360E+06 -1.4435E-02 -2.7199E-02 -1.7626E-02  2.5000E-01  7.5000E-01
 cg2d: Sum(rhs),rhsMax =  -3.17773585223335E-13  7.07130429210212E+00
(PID.TID 0000.0001)                    cg2d_init_res =    3.14225887935744E-01
(PID.TID 0000.0001)                       cg2d_iters =    24
(PID.TID 0000.0001)                         cg2d_res =    6.29457083758062E-14
(PID.TID 0000.0001) // =======================================================
(PID.TID 0000.0001) // Begin MONITOR dynamic field statistics
(PID.TID 0000.0001) // =======================================================
(PID.TID 0000.0001) %MON time_tsnumber                =                   106
(PID.TID 0000.0001) %MON time_secondsf                =   4.5792000000000E+06
(PID.TID 0000.0001) %MON dynstat_eta_max              =   8.4077772714565E-01
(PID.TID 0000.0001) %MON dynstat_eta_min              =  -1.4012121381244E+00
(PID.TID 0000.0001) %MON dynstat_eta_mean             =   9.0924148067055E-17
(PID.TID 0000.0001) %MON dynstat_eta_sd               =   4.7487315564962E-01
(PID.TID 0000.0001) %MON dynstat_eta_del2             =   1.9114294833282E-02
(PID.TID 0000.0001) %MON dynstat_uvel_max             =   1.8030450622400E-01
(PID.TID 0000.0001) %MON dynstat_uvel_min             =  -1.4865812158726E-01
(PID.TID 0000.0001) %MON dynstat_uvel_mean            =   8.9087996409008E-04
(PID.TID 0000.0001) %MON dynstat_uvel_sd              =   1.5817680966950E-02
(PID.TID 0000.0001) %MON dynstat_uvel_del2            =   4.6914397003152E-03
(PID.TID 0000.0001) %MON dynstat_vvel_max             =   1.6062100385153E-01
(PID.TID 0000.0001) %MON dynstat_vvel_min             =  -1.4129953510086E-01
(PID.TID 0000.0001) %MON dynstat_vvel_mean            =   1.2480505396394E-03
(PID.TID 0000.0001) %MON dynstat_vvel_sd              =   1.4370545908769E-02
(PID.TID 0000.0001) %MON dynstat_vvel_del2            =   4.1894279150978E-03
(PID.TID 0000.0001) %MON dynstat_wvel_max             =   3.5474955390504E-04
(PID.TID 0000.0001) %MON dynstat_wvel_min             =  -1.8884079463461E-04
(PID.TID 0000.0001) %MON dynstat_wvel_mean            =   1.5833381945613E-22
(PID.TID 0000.0001) %MON dynstat_wvel_sd              =   2.0154843018160E-05
(PID.TID 0000.0001) %MON dynstat_wvel_del2            =   7.6816223999158E-06
(PID.TID 0000.0001) %MON dynstat_theta_max            =   2.9850424706255E+01
(PID.TID 0000.0001) %MON dynstat_theta_min            =  -1.9264550126840E+00
(PID.TID 0000.0001) %MON dynstat_theta_mean           =   3.5885883839802E+00
(PID.TID 0000.0001) %MON dynstat_theta_sd             =   4.3337399075413E+00
(PID.TID 0000.0001) %MON dynstat_theta_del2           =   1.2845428816150E-01
(PID.TID 0000.0001) %MON dynstat_salt_max             =   3.7386193537459E+01
(PID.TID 0000.0001) %MON dynstat_salt_min             =   2.9712947764899E+01
(PID.TID 0000.0001) %MON dynstat_salt_mean            =   3.4716008739983E+01
(PID.TID 0000.0001) %MON dynstat_salt_sd              =   2.9326432920324E-01
(PID.TID 0000.0001) %MON dynstat_salt_del2            =   2.2741767073307E-02
(PID.TID 0000.0001) %MON advcfl_uvel_max              =   2.9798530744077E-02
(PID.TID 0000.0001) %MON advcfl_vvel_max              =   1.5603042498579E-02
(PID.TID 0000.0001) %MON advcfl_wvel_max              =   6.5100455811105E-02
(PID.TID 0000.0001) %MON advcfl_W_hf_max              =   6.8975731816284E-02
(PID.TID 0000.0001) %MON pe_b_mean                    =   2.8856020630493E-04
(PID.TID 0000.0001) %MON ke_max                       =   1.5360201552307E-02
(PID.TID 0000.0001) %MON ke_mean                      =   2.0744162458358E-04
(PID.TID 0000.0001) %MON ke_vol                       =   1.3226782436723E+18
(PID.TID 0000.0001) %MON vort_r_min                   =  -8.0513186537222E-07
(PID.TID 0000.0001) %MON vort_r_max                   =   6.1972092181601E-07
(PID.TID 0000.0001) %MON vort_a_mean                  =  -2.5205768635391E-05
(PID.TID 0000.0001) %MON vort_a_sd                    =   7.3403421096961E-05
(PID.TID 0000.0001) %MON vort_p_mean                  =  -3.1758668602347E-05
(PID.TID 0000.0001) %MON vort_p_sd                    =   1.3126157839635E-04
(PID.TID 0000.0001) %MON surfExpan_theta_mean         =   4.5384438473916E-06
(PID.TID 0000.0001) %MON surfExpan_salt_mean          =  -6.4353538886790E-08
(PID.TID 0000.0001) // =======================================================
(PID.TID 0000.0001) // End MONITOR dynamic field statistics
(PID.TID 0000.0001) // =======================================================
time,SST,SSS,fu,fv,Q,E-P,i0,i1,a,b =   4.5792E+06 -4.3907E-01  3.4463E+01 -1.7838E-02 -1.3087E-02  2.3379E+02  0.0000E+00     2     3  2.6667E-01  7.3333E-01
time,fu0,fu1,fu =   4.5792E+06 -1.4435E-02 -2.7199E-02 -1.7838E-02  2.6667E-01  7.3333E-01
 cg2d: Sum(rhs),rhsMax =  -3.42378903006590E-13  6.97474690981930E+00
(PID.TID 0000.0001)                    cg2d_init_res =    3.22463592241752E-01
(PID.TID 0000.0001)                       cg2d_iters =    24
(PID.TID 0000.0001)                         cg2d_res =    6.48014201561058E-14
(PID.TID 0000.0001) // =======================================================
(PID.TID 0000.0001) // Begin MONITOR dynamic field statistics
(PID.TID 0000.0001) // =======================================================
(PID.TID 0000.0001) %MON time_tsnumber                =                   107
(PID.TID 0000.0001) %MON time_secondsf                =   4.6224000000000E+06
(PID.TID 0000.0001) %MON dynstat_eta_max              =   8.2967349369931E-01
(PID.TID 0000.0001) %MON dynstat_eta_min              =  -1.4133364018431E+00
(PID.TID 0000.0001) %MON dynstat_eta_mean             =   1.4235723187817E-16
(PID.TID 0000.0001) %MON dynstat_eta_sd               =   4.7605898844061E-01
(PID.TID 0000.0001) %MON dynstat_eta_del2             =   1.9084191131320E-02
(PID.TID 0000.0001) %MON dynstat_uvel_max             =   1.8557320368747E-01
(PID.TID 0000.0001) %MON dynstat_uvel_min             =  -1.4756498927602E-01
(PID.TID 0000.0001) %MON dynstat_uvel_mean            =   8.9044815828175E-04
(PID.TID 0000.0001) %MON dynstat_uvel_sd              =   1.5925654437694E-02
(PID.TID 0000.0001) %MON dynstat_uvel_del2            =   4.6814550548762E-03
(PID.TID 0000.0001) %MON dynstat_vvel_max             =   1.6070231183658E-01
(PID.TID 0000.0001) %MON dynstat_vvel_min             =  -1.3999585228326E-01
(PID.TID 0000.0001) %MON dynstat_vvel_mean            =   1.3261928096735E-03
(PID.TID 0000.0001) %MON dynstat_vvel_sd              =   1.4343480543226E-02
(PID.TID 0000.0001) %MON dynstat_vvel_del2            =   4.1818921404276E-03
(PID.TID 0000.0001) %MON dynstat_wvel_max             =   3.5014562810126E-04
(PID.TID 0000.0001) %MON dynstat_wvel_min             =  -1.8730269213696E-04
(PID.TID 0000.0001) %MON dynstat_wvel_mean            =   2.1753381582382E-22
(PID.TID 0000.0001) %MON dynstat_wvel_sd              =   2.0069207930128E-05
(PID.TID 0000.0001) %MON dynstat_wvel_del2            =   7.6420316759473E-06
(PID.TID 0000.0001) %MON dynstat_theta_max            =   2.9855224621432E+01
(PID.TID 0000.0001) %MON dynstat_theta_min            =  -1.9260216268736E+00
(PID.TID 0000.0001) %MON dynstat_theta_mean           =   3.5885849251904E+00
(PID.TID 0000.0001) %MON dynstat_theta_sd             =   4.3338228244600E+00
(PID.TID 0000.0001) %MON dynstat_theta_del2           =   1.2834974399456E-01
(PID.TID 0000.0001) %MON dynstat_salt_max             =   3.7385757247506E+01
(PID.TID 0000.0001) %MON dynstat_salt_min             =   2.9711404917093E+01
(PID.TID 0000.0001) %MON dynstat_salt_mean            =   3.4716009845984E+01
(PID.TID 0000.0001) %MON dynstat_salt_sd              =   2.9323324530989E-01
(PID.TID 0000.0001) %MON dynstat_salt_del2            =   2.2709531240420E-02
(PID.TID 0000.0001) %MON advcfl_uvel_max              =   3.0669276831540E-02
(PID.TID 0000.0001) %MON advcfl_vvel_max              =   1.5610940917316E-02
(PID.TID 0000.0001) %MON advcfl_wvel_max              =   6.2887169964028E-02
(PID.TID 0000.0001) %MON advcfl_W_hf_max              =   6.8551446259384E-02
(PID.TID 0000.0001) %MON pe_b_mean                    =   2.9000316594374E-04
(PID.TID 0000.0001) %MON ke_max                       =   1.6394425233905E-02
(PID.TID 0000.0001) %MON ke_mean                      =   2.0873982118233E-04
(PID.TID 0000.0001) %MON ke_vol                       =   1.3226782436723E+18
(PID.TID 0000.0001) %MON vort_r_min                   =  -8.1296522333738E-07
(PID.TID 0000.0001) %MON vort_r_max                   =   6.1315865808340E-07
(PID.TID 0000.0001) %MON vort_a_mean                  =  -2.5205768670597E-05
(PID.TID 0000.0001) %MON vort_a_sd                    =   7.3403418882912E-05
(PID.TID 0000.0001) %MON vort_p_mean                  =  -3.1758668646706E-05
(PID.TID 0000.0001) %MON vort_p_sd                    =   1.3126150888400E-04
(PID.TID 0000.0001) %MON surfExpan_theta_mean         =   4.2024545361525E-06
(PID.TID 0000.0001) %MON surfExpan_salt_mean          =  -9.1614258994589E-08
(PID.TID 0000.0001) // =======================================================
(PID.TID 0000.0001) // End MONITOR dynamic field statistics
(PID.TID 0000.0001) // =======================================================
time,SST,SSS,fu,fv,Q,E-P,i0,i1,a,b =   4.6224E+06 -4.3327E-01  3.4466E+01 -1.8051E-02 -1.2803E-02  2.3337E+02  0.0000E+00     2     3  2.8333E-01  7.1667E-01
time,fu0,fu1,fu =   4.6224E+06 -1.4435E-02 -2.7199E-02 -1.8051E-02  2.8333E-01  7.1667E-01
 cg2d: Sum(rhs),rhsMax =   1.93803306736129E-13  6.85449542333706E+00
(PID.TID 0000.0001)                    cg2d_init_res =    3.32796314613495E-01
(PID.TID 0000.0001)                       cg2d_iters =    24
(PID.TID 0000.0001)                         cg2d_res =    6.62202619603298E-14
(PID.TID 0000.0001) // =======================================================
(PID.TID 0000.0001) // Begin MONITOR dynamic field statistics
(PID.TID 0000.0001) // =======================================================
(PID.TID 0000.0001) %MON time_tsnumber                =                   108
(PID.TID 0000.0001) %MON time_secondsf                =   4.6656000000000E+06
(PID.TID 0000.0001) %MON dynstat_eta_max              =   8.1582327983774E-01
(PID.TID 0000.0001) %MON dynstat_eta_min              =  -1.4239999588195E+00
(PID.TID 0000.0001) %MON dynstat_eta_mean             =   1.9261801290109E-17
(PID.TID 0000.0001) %MON dynstat_eta_sd               =   4.7725381034855E-01
(PID.TID 0000.0001) %MON dynstat_eta_del2             =   1.9039870285102E-02
(PID.TID 0000.0001) %MON dynstat_uvel_max             =   1.9025604045077E-01
(PID.TID 0000.0001) %MON dynstat_uvel_min             =  -1.4641252188661E-01
(PID.TID 0000.0001) %MON dynstat_uvel_mean            =   8.9162399480677E-04
(PID.TID 0000.0001) %MON dynstat_uvel_sd              =   1.6031319737331E-02
(PID.TID 0000.0001) %MON dynstat_uvel_del2            =   4.6725550464985E-03
(PID.TID 0000.0001) %MON dynstat_vvel_max             =   1.6242039044228E-01
(PID.TID 0000.0001) %MON dynstat_vvel_min             =  -1.3866952490124E-01
(PID.TID 0000.0001) %MON dynstat_vvel_mean            =   1.3972571159381E-03
(PID.TID 0000.0001) %MON dynstat_vvel_sd              =   1.4323187253325E-02
(PID.TID 0000.0001) %MON dynstat_vvel_del2            =   4.1758395214957E-03
(PID.TID 0000.0001) %MON dynstat_wvel_max             =   3.4534488025216E-04
(PID.TID 0000.0001) %MON dynstat_wvel_min             =  -1.8567356154938E-04
(PID.TID 0000.0001) %MON dynstat_wvel_mean            =  -5.2170926511574E-22
(PID.TID 0000.0001) %MON dynstat_wvel_sd              =   1.9987438056795E-05
(PID.TID 0000.0001) %MON dynstat_wvel_del2            =   7.6071656760676E-06
(PID.TID 0000.0001) %MON dynstat_theta_max            =   2.9860039239109E+01
(PID.TID 0000.0001) %MON dynstat_theta_min            =  -1.9265663530025E+00
(PID.TID 0000.0001) %MON dynstat_theta_mean           =   3.5885846757888E+00
(PID.TID 0000.0001) %MON dynstat_theta_sd             =   4.3339169708806E+00
(PID.TID 0000.0001) %MON dynstat_theta_del2           =   1.2822625532996E-01
(PID.TID 0000.0001) %MON dynstat_salt_max             =   3.7385316103492E+01
(PID.TID 0000.0001) %MON dynstat_salt_min             =   2.9709897843733E+01
(PID.TID 0000.0001) %MON dynstat_salt_mean            =   3.4716011361617E+01
(PID.TID 0000.0001) %MON dynstat_salt_sd              =   2.9320167361580E-01
(PID.TID 0000.0001) %MON dynstat_salt_del2            =   2.2680085611969E-02
(PID.TID 0000.0001) %MON advcfl_uvel_max              =   3.1443199004552E-02
(PID.TID 0000.0001) %MON advcfl_vvel_max              =   1.5777838476525E-02
(PID.TID 0000.0001) %MON advcfl_wvel_max              =   6.0285962361965E-02
(PID.TID 0000.0001) %MON advcfl_W_hf_max              =   6.8515952757657E-02
(PID.TID 0000.0001) %MON pe_b_mean                    =   2.9146070365773E-04
(PID.TID 0000.0001) %MON ke_max                       =   1.7368062360655E-02
(PID.TID 0000.0001) %MON ke_mean                      =   2.1010059830658E-04
(PID.TID 0000.0001) %MON ke_vol                       =   1.3226782436723E+18
(PID.TID 0000.0001) %MON vort_r_min                   =  -8.1963586294034E-07
(PID.TID 0000.0001) %MON vort_r_max                   =   6.1076343676200E-07
(PID.TID 0000.0001) %MON vort_a_mean                  =  -2.5205768705526E-05
(PID.TID 0000.0001) %MON vort_a_sd                    =   7.3403417205907E-05
(PID.TID 0000.0001) %MON vort_p_mean                  =  -3.1758668690716E-05
(PID.TID 0000.0001) %MON vort_p_sd                    =   1.3126144191537E-04
(PID.TID 0000.0001) %MON surfExpan_theta_mean         =   3.8689907046902E-06
(PID.TID 0000.0001) %MON surfExpan_salt_mean          =  -1.2439896330283E-07
(PID.TID 0000.0001) // =======================================================
(PID.TID 0000.0001) // End MONITOR dynamic field statistics
(PID.TID 0000.0001) // =======================================================
time,SST,SSS,fu,fv,Q,E-P,i0,i1,a,b =   4.6656E+06 -4.2747E-01  3.4469E+01 -1.8264E-02 -1.2518E-02  2.3296E+02  0.0000E+00     2     3  3.0000E-01  7.0000E-01
time,fu0,fu1,fu =   4.6656E+06 -1.4435E-02 -2.7199E-02 -1.8264E-02  3.0000E-01  7.0000E-01
 cg2d: Sum(rhs),rhsMax =  -2.77097789158631E-13  6.77682337814305E+00
(PID.TID 0000.0001)                    cg2d_init_res =    3.41050375518801E-01
(PID.TID 0000.0001)                       cg2d_iters =    24
(PID.TID 0000.0001)                         cg2d_res =    6.64894817692467E-14
(PID.TID 0000.0001) // =======================================================
(PID.TID 0000.0001) // Begin MONITOR dynamic field statistics
(PID.TID 0000.0001) // =======================================================
(PID.TID 0000.0001) %MON time_tsnumber                =                   109
(PID.TID 0000.0001) %MON time_secondsf                =   4.7088000000000E+06
(PID.TID 0000.0001) %MON dynstat_eta_max              =   7.9988094545130E-01
(PID.TID 0000.0001) %MON dynstat_eta_min              =  -1.4332706512480E+00
(PID.TID 0000.0001) %MON dynstat_eta_mean             =  -2.0820102769584E-16
(PID.TID 0000.0001) %MON dynstat_eta_sd               =   4.7845749531794E-01
(PID.TID 0000.0001) %MON dynstat_eta_del2             =   1.8987202868971E-02
(PID.TID 0000.0001) %MON dynstat_uvel_max             =   1.9427993077800E-01
(PID.TID 0000.0001) %MON dynstat_uvel_min             =  -1.4519852921675E-01
(PID.TID 0000.0001) %MON dynstat_uvel_mean            =   8.9431635698910E-04
(PID.TID 0000.0001) %MON dynstat_uvel_sd              =   1.6132054170896E-02
(PID.TID 0000.0001) %MON dynstat_uvel_del2            =   4.6640661611631E-03
(PID.TID 0000.0001) %MON dynstat_vvel_max             =   1.6400259658891E-01
(PID.TID 0000.0001) %MON dynstat_vvel_min             =  -1.3733287519797E-01
(PID.TID 0000.0001) %MON dynstat_vvel_mean            =   1.4607413510927E-03
(PID.TID 0000.0001) %MON dynstat_vvel_sd              =   1.4309231902778E-02
(PID.TID 0000.0001) %MON dynstat_vvel_del2            =   4.1711660300155E-03
(PID.TID 0000.0001) %MON dynstat_wvel_max             =   3.4037878123028E-04
(PID.TID 0000.0001) %MON dynstat_wvel_min             =  -1.8396297385658E-04
(PID.TID 0000.0001) %MON dynstat_wvel_mean            =   1.9431691800563E-22
(PID.TID 0000.0001) %MON dynstat_wvel_sd              =   1.9907559122281E-05
(PID.TID 0000.0001) %MON dynstat_wvel_del2            =   7.5712312422728E-06
(PID.TID 0000.0001) %MON dynstat_theta_max            =   2.9864780184438E+01
(PID.TID 0000.0001) %MON dynstat_theta_min            =  -1.9266570865214E+00
(PID.TID 0000.0001) %MON dynstat_theta_mean           =   3.5885875606895E+00
(PID.TID 0000.0001) %MON dynstat_theta_sd             =   4.3340219927575E+00
(PID.TID 0000.0001) %MON dynstat_theta_del2           =   1.2812229529001E-01
(PID.TID 0000.0001) %MON dynstat_salt_max             =   3.7384869688765E+01
(PID.TID 0000.0001) %MON dynstat_salt_min             =   2.9708427512993E+01
(PID.TID 0000.0001) %MON dynstat_salt_mean            =   3.4716013333553E+01
(PID.TID 0000.0001) %MON dynstat_salt_sd              =   2.9316971095577E-01
(PID.TID 0000.0001) %MON dynstat_salt_del2            =   2.2647455848858E-02
(PID.TID 0000.0001) %MON advcfl_uvel_max              =   3.2108218543651E-02
(PID.TID 0000.0001) %MON advcfl_vvel_max              =   1.5931537115902E-02
(PID.TID 0000.0001) %MON advcfl_wvel_max              =   5.7358128299900E-02
(PID.TID 0000.0001) %MON advcfl_W_hf_max              =   6.8899384082575E-02
(PID.TID 0000.0001) %MON pe_b_mean                    =   2.9293274755520E-04
(PID.TID 0000.0001) %MON ke_max                       =   1.8264078366015E-02
(PID.TID 0000.0001) %MON ke_mean                      =   2.1147681381540E-04
(PID.TID 0000.0001) %MON ke_vol                       =   1.3226782436723E+18
(PID.TID 0000.0001) %MON vort_r_min                   =  -8.2515203866268E-07
(PID.TID 0000.0001) %MON vort_r_max                   =   6.1861978704611E-07
(PID.TID 0000.0001) %MON vort_a_mean                  =  -2.5205768740321E-05
(PID.TID 0000.0001) %MON vort_a_sd                    =   7.3403416020946E-05
(PID.TID 0000.0001) %MON vort_p_mean                  =  -3.1758668734557E-05
(PID.TID 0000.0001) %MON vort_p_sd                    =   1.3126137783581E-04
(PID.TID 0000.0001) %MON surfExpan_theta_mean         =   3.5409014919902E-06
(PID.TID 0000.0001) %MON surfExpan_salt_mean          =  -1.6185677625595E-07
(PID.TID 0000.0001) // =======================================================
(PID.TID 0000.0001) // End MONITOR dynamic field statistics
(PID.TID 0000.0001) // =======================================================
time,SST,SSS,fu,fv,Q,E-P,i0,i1,a,b =   4.7088E+06 -4.2167E-01  3.4471E+01 -1.8477E-02 -1.2234E-02  2.3254E+02  0.0000E+00     2     3  3.1667E-01  6.8333E-01
time,fu0,fu1,fu =   4.7088E+06 -1.4435E-02 -2.7199E-02 -1.8477E-02  3.1667E-01  6.8333E-01
 cg2d: Sum(rhs),rhsMax =  -1.73208669629332E-13  6.84684495039776E+00
(PID.TID 0000.0001)                    cg2d_init_res =    3.40802716471271E-01
(PID.TID 0000.0001)                       cg2d_iters =    24
(PID.TID 0000.0001)                         cg2d_res =    6.42779071037216E-14
(PID.TID 0000.0001) // =======================================================
(PID.TID 0000.0001) // Begin MONITOR dynamic field statistics
(PID.TID 0000.0001) // =======================================================
(PID.TID 0000.0001) %MON time_tsnumber                =                   110
(PID.TID 0000.0001) %MON time_secondsf                =   4.7520000000000E+06
(PID.TID 0000.0001) %MON dynstat_eta_max              =   7.8252613463669E-01
(PID.TID 0000.0001) %MON dynstat_eta_min              =  -1.4412549267516E+00
(PID.TID 0000.0001) %MON dynstat_eta_mean             =   3.1297700626086E-16
(PID.TID 0000.0001) %MON dynstat_eta_sd               =   4.7966919371519E-01
(PID.TID 0000.0001) %MON dynstat_eta_del2             =   1.8946822749864E-02
(PID.TID 0000.0001) %MON dynstat_uvel_max             =   1.9758504241404E-01
(PID.TID 0000.0001) %MON dynstat_uvel_min             =  -1.4392204535257E-01
(PID.TID 0000.0001) %MON dynstat_uvel_mean            =   8.9838569375405E-04
(PID.TID 0000.0001) %MON dynstat_uvel_sd              =   1.6225802661691E-02
(PID.TID 0000.0001) %MON dynstat_uvel_del2            =   4.6554659506840E-03
(PID.TID 0000.0001) %MON dynstat_vvel_max             =   1.6544439819314E-01
(PID.TID 0000.0001) %MON dynstat_vvel_min             =  -1.3847258963991E-01
(PID.TID 0000.0001) %MON dynstat_vvel_mean            =   1.5162938398427E-03
(PID.TID 0000.0001) %MON dynstat_vvel_sd              =   1.4300775773857E-02
(PID.TID 0000.0001) %MON dynstat_vvel_del2            =   4.1657973432897E-03
(PID.TID 0000.0001) %MON dynstat_wvel_max             =   3.3527970308695E-04
(PID.TID 0000.0001) %MON dynstat_wvel_min             =  -1.8218024465644E-04
(PID.TID 0000.0001) %MON dynstat_wvel_mean            =  -6.3141232819158E-23
(PID.TID 0000.0001) %MON dynstat_wvel_sd              =   1.9827604177062E-05
(PID.TID 0000.0001) %MON dynstat_wvel_del2            =   7.5351424264387E-06
(PID.TID 0000.0001) %MON dynstat_theta_max            =   2.9869356262242E+01
(PID.TID 0000.0001) %MON dynstat_theta_min            =  -1.9268479920229E+00
(PID.TID 0000.0001) %MON dynstat_theta_mean           =   3.5885934870318E+00
(PID.TID 0000.0001) %MON dynstat_theta_sd             =   4.3341369349214E+00
(PID.TID 0000.0001) %MON dynstat_theta_del2           =   1.2801018038326E-01
(PID.TID 0000.0001) %MON dynstat_salt_max             =   3.7384418233801E+01
(PID.TID 0000.0001) %MON dynstat_salt_min             =   2.9706994768180E+01
(PID.TID 0000.0001) %MON dynstat_salt_mean            =   3.4716015798360E+01
(PID.TID 0000.0001) %MON dynstat_salt_sd              =   2.9313752479012E-01
(PID.TID 0000.0001) %MON dynstat_salt_del2            =   2.2615760156066E-02
(PID.TID 0000.0001) %MON advcfl_uvel_max              =   3.2654447103113E-02
(PID.TID 0000.0001) %MON advcfl_vvel_max              =   1.6071596579895E-02
(PID.TID 0000.0001) %MON advcfl_wvel_max              =   5.4164173425556E-02
(PID.TID 0000.0001) %MON advcfl_W_hf_max              =   6.8778598564053E-02
(PID.TID 0000.0001) %MON pe_b_mean                    =   2.9441833654281E-04
(PID.TID 0000.0001) %MON ke_max                       =   1.9066919233820E-02
(PID.TID 0000.0001) %MON ke_mean                      =   2.1282392731189E-04
(PID.TID 0000.0001) %MON ke_vol                       =   1.3226782436723E+18
(PID.TID 0000.0001) %MON vort_r_min                   =  -8.2953609707539E-07
(PID.TID 0000.0001) %MON vort_r_max                   =   6.2469674472308E-07
(PID.TID 0000.0001) %MON vort_a_mean                  =  -2.5205768774873E-05
(PID.TID 0000.0001) %MON vort_a_sd                    =   7.3403415272054E-05
(PID.TID 0000.0001) %MON vort_p_mean                  =  -3.1758668778091E-05
(PID.TID 0000.0001) %MON vort_p_sd                    =   1.3126131694676E-04
(PID.TID 0000.0001) %MON surfExpan_theta_mean         =   3.2214008687592E-06
(PID.TID 0000.0001) %MON surfExpan_salt_mean          =  -2.0312369526143E-07
(PID.TID 0000.0001) // =======================================================
(PID.TID 0000.0001) // End MONITOR dynamic field statistics
(PID.TID 0000.0001) // =======================================================
time,SST,SSS,fu,fv,Q,E-P,i0,i1,a,b =   4.7520E+06 -4.1587E-01  3.4474E+01 -1.8689E-02 -1.1950E-02  2.3212E+02  0.0000E+00     2     3  3.3333E-01  6.6667E-01
time,fu0,fu1,fu =   4.7520E+06 -1.4435E-02 -2.7199E-02 -1.8689E-02  3.3333E-01  6.6667E-01
 cg2d: Sum(rhs),rhsMax =   7.86176679312689E-14  6.91737139050641E+00
(PID.TID 0000.0001)                    cg2d_init_res =    3.38750108183404E-01
(PID.TID 0000.0001)                       cg2d_iters =    24
(PID.TID 0000.0001)                         cg2d_res =    6.11523606525554E-14
(PID.TID 0000.0001) // =======================================================
(PID.TID 0000.0001) // Begin MONITOR dynamic field statistics
(PID.TID 0000.0001) // =======================================================
(PID.TID 0000.0001) %MON time_tsnumber                =                   111
(PID.TID 0000.0001) %MON time_secondsf                =   4.7952000000000E+06
(PID.TID 0000.0001) %MON dynstat_eta_max              =   7.8611055849913E-01
(PID.TID 0000.0001) %MON dynstat_eta_min              =  -1.4480886215408E+00
(PID.TID 0000.0001) %MON dynstat_eta_mean             =   2.4697692896974E-17
(PID.TID 0000.0001) %MON dynstat_eta_sd               =   4.8088689753010E-01
(PID.TID 0000.0001) %MON dynstat_eta_del2             =   1.8916151925026E-02
(PID.TID 0000.0001) %MON dynstat_uvel_max             =   2.0012571542362E-01
(PID.TID 0000.0001) %MON dynstat_uvel_min             =  -1.4258360034690E-01
(PID.TID 0000.0001) %MON dynstat_uvel_mean            =   9.0364627397578E-04
(PID.TID 0000.0001) %MON dynstat_uvel_sd              =   1.6311129391406E-02
(PID.TID 0000.0001) %MON dynstat_uvel_del2            =   4.6457048737837E-03
(PID.TID 0000.0001) %MON dynstat_vvel_max             =   1.6674204830969E-01
(PID.TID 0000.0001) %MON dynstat_vvel_min             =  -1.3988710148467E-01
(PID.TID 0000.0001) %MON dynstat_vvel_mean            =   1.5637182530889E-03
(PID.TID 0000.0001) %MON dynstat_vvel_sd              =   1.4296619522572E-02
(PID.TID 0000.0001) %MON dynstat_vvel_del2            =   4.1604898310428E-03
(PID.TID 0000.0001) %MON dynstat_wvel_max             =   3.3008017782086E-04
(PID.TID 0000.0001) %MON dynstat_wvel_min             =  -1.8033435816962E-04
(PID.TID 0000.0001) %MON dynstat_wvel_mean            =  -8.8260848067568E-23
(PID.TID 0000.0001) %MON dynstat_wvel_sd              =   1.9745818819842E-05
(PID.TID 0000.0001) %MON dynstat_wvel_del2            =   7.4990310367992E-06
(PID.TID 0000.0001) %MON dynstat_theta_max            =   2.9873675813775E+01
(PID.TID 0000.0001) %MON dynstat_theta_min            =  -1.9269929397187E+00
(PID.TID 0000.0001) %MON dynstat_theta_mean           =   3.5886022800307E+00
(PID.TID 0000.0001) %MON dynstat_theta_sd             =   4.3342607090170E+00
(PID.TID 0000.0001) %MON dynstat_theta_del2           =   1.2789384035180E-01
(PID.TID 0000.0001) %MON dynstat_salt_max             =   3.7383962222406E+01
(PID.TID 0000.0001) %MON dynstat_salt_min             =   2.9705600302757E+01
(PID.TID 0000.0001) %MON dynstat_salt_mean            =   3.4716018778935E+01
(PID.TID 0000.0001) %MON dynstat_salt_sd              =   2.9310508785350E-01
(PID.TID 0000.0001) %MON dynstat_salt_del2            =   2.2584159843261E-02
(PID.TID 0000.0001) %MON advcfl_uvel_max              =   3.3074338565463E-02
(PID.TID 0000.0001) %MON advcfl_vvel_max              =   1.6197652882814E-02
(PID.TID 0000.0001) %MON advcfl_wvel_max              =   5.0762407713086E-02
(PID.TID 0000.0001) %MON advcfl_W_hf_max              =   6.8159791270748E-02
(PID.TID 0000.0001) %MON pe_b_mean                    =   2.9591507389582E-04
(PID.TID 0000.0001) %MON ke_max                       =   1.9762897739959E-02
(PID.TID 0000.0001) %MON ke_mean                      =   2.1410175124546E-04
(PID.TID 0000.0001) %MON ke_vol                       =   1.3226782436723E+18
(PID.TID 0000.0001) %MON vort_r_min                   =  -8.3282299908393E-07
(PID.TID 0000.0001) %MON vort_r_max                   =   6.2894038495091E-07
(PID.TID 0000.0001) %MON vort_a_mean                  =  -2.5205768809052E-05
(PID.TID 0000.0001) %MON vort_a_sd                    =   7.3403414891538E-05
(PID.TID 0000.0001) %MON vort_p_mean                  =  -3.1758668821156E-05
(PID.TID 0000.0001) %MON vort_p_sd                    =   1.3126125948021E-04
(PID.TID 0000.0001) %MON surfExpan_theta_mean         =   2.9151073871556E-06
(PID.TID 0000.0001) %MON surfExpan_salt_mean          =  -2.4716209766043E-07
(PID.TID 0000.0001) // =======================================================
(PID.TID 0000.0001) // End MONITOR dynamic field statistics
(PID.TID 0000.0001) // =======================================================
time,SST,SSS,fu,fv,Q,E-P,i0,i1,a,b =   4.7952E+06 -4.1007E-01  3.4476E+01 -1.8902E-02 -1.1665E-02  2.3170E+02  0.0000E+00     2     3  3.5000E-01  6.5000E-01
time,fu0,fu1,fu =   4.7952E+06 -1.4435E-02 -2.7199E-02 -1.8902E-02  3.5000E-01  6.5000E-01
 cg2d: Sum(rhs),rhsMax =  -3.59046126163776E-13  6.98488822080928E+00
(PID.TID 0000.0001)                    cg2d_init_res =    3.34730020715237E-01
(PID.TID 0000.0001)                       cg2d_iters =    24
(PID.TID 0000.0001)                         cg2d_res =    5.75069705776006E-14
(PID.TID 0000.0001) // =======================================================
(PID.TID 0000.0001) // Begin MONITOR dynamic field statistics
(PID.TID 0000.0001) // =======================================================
(PID.TID 0000.0001) %MON time_tsnumber                =                   112
(PID.TID 0000.0001) %MON time_secondsf                =   4.8384000000000E+06
(PID.TID 0000.0001) %MON dynstat_eta_max              =   7.9417108844764E-01
(PID.TID 0000.0001) %MON dynstat_eta_min              =  -1.4539277233785E+00
(PID.TID 0000.0001) %MON dynstat_eta_mean             =  -6.6704630807346E-17
(PID.TID 0000.0001) %MON dynstat_eta_sd               =   4.8210722208542E-01
(PID.TID 0000.0001) %MON dynstat_eta_del2             =   1.8891884803175E-02
(PID.TID 0000.0001) %MON dynstat_uvel_max             =   2.0187102201884E-01
(PID.TID 0000.0001) %MON dynstat_uvel_min             =  -1.4130237756929E-01
(PID.TID 0000.0001) %MON dynstat_uvel_mean            =   9.0987046239397E-04
(PID.TID 0000.0001) %MON dynstat_uvel_sd              =   1.6387213317879E-02
(PID.TID 0000.0001) %MON dynstat_uvel_del2            =   4.6347349038002E-03
(PID.TID 0000.0001) %MON dynstat_vvel_max             =   1.6789263370696E-01
(PID.TID 0000.0001) %MON dynstat_vvel_min             =  -1.4110975303937E-01
(PID.TID 0000.0001) %MON dynstat_vvel_mean            =   1.6029745908366E-03
(PID.TID 0000.0001) %MON dynstat_vvel_sd              =   1.4295278771454E-02
(PID.TID 0000.0001) %MON dynstat_vvel_del2            =   4.1558257110873E-03
(PID.TID 0000.0001) %MON dynstat_wvel_max             =   3.2481216698638E-04
(PID.TID 0000.0001) %MON dynstat_wvel_min             =  -1.7843363730060E-04
(PID.TID 0000.0001) %MON dynstat_wvel_mean            =   2.0597795776220E-22
(PID.TID 0000.0001) %MON dynstat_wvel_sd              =   1.9660754667457E-05
(PID.TID 0000.0001) %MON dynstat_wvel_del2            =   7.4599614104587E-06
(PID.TID 0000.0001) %MON dynstat_theta_max            =   2.9877649803215E+01
(PID.TID 0000.0001) %MON dynstat_theta_min            =  -1.9270847281169E+00
(PID.TID 0000.0001) %MON dynstat_theta_mean           =   3.5886137131392E+00
(PID.TID 0000.0001) %MON dynstat_theta_sd             =   4.3343921011479E+00
(PID.TID 0000.0001) %MON dynstat_theta_del2           =   1.2776502014460E-01
(PID.TID 0000.0001) %MON dynstat_salt_max             =   3.7383502536488E+01
(PID.TID 0000.0001) %MON dynstat_salt_min             =   2.9704244680211E+01
(PID.TID 0000.0001) %MON dynstat_salt_mean            =   3.4716022285871E+01
(PID.TID 0000.0001) %MON dynstat_salt_sd              =   2.9307244739987E-01
(PID.TID 0000.0001) %MON dynstat_salt_del2            =   2.2554123680411E-02
(PID.TID 0000.0001) %MON advcfl_uvel_max              =   3.3362781562950E-02
(PID.TID 0000.0001) %MON advcfl_vvel_max              =   1.6309423027574E-02
(PID.TID 0000.0001) %MON advcfl_wvel_max              =   5.5650260629285E-02
(PID.TID 0000.0001) %MON advcfl_W_hf_max              =   6.7058879444645E-02
(PID.TID 0000.0001) %MON pe_b_mean                    =   2.9741883963375E-04
(PID.TID 0000.0001) %MON ke_max                       =   2.0340532777229E-02
(PID.TID 0000.0001) %MON ke_mean                      =   2.1527573226160E-04
(PID.TID 0000.0001) %MON ke_vol                       =   1.3226782436723E+18
(PID.TID 0000.0001) %MON vort_r_min                   =  -8.3505875754122E-07
(PID.TID 0000.0001) %MON vort_r_max                   =   6.3131794556531E-07
(PID.TID 0000.0001) %MON vort_a_mean                  =  -2.5205768842754E-05
(PID.TID 0000.0001) %MON vort_a_sd                    =   7.3403414801408E-05
(PID.TID 0000.0001) %MON vort_p_mean                  =  -3.1758668863619E-05
(PID.TID 0000.0001) %MON vort_p_sd                    =   1.3126120561093E-04
(PID.TID 0000.0001) %MON surfExpan_theta_mean         =   2.6273110489537E-06
(PID.TID 0000.0001) %MON surfExpan_salt_mean          =  -2.9286746114868E-07
(PID.TID 0000.0001) // =======================================================
(PID.TID 0000.0001) // End MONITOR dynamic field statistics
(PID.TID 0000.0001) // =======================================================
time,SST,SSS,fu,fv,Q,E-P,i0,i1,a,b =   4.8384E+06 -4.0427E-01  3.4479E+01 -1.9115E-02 -1.1381E-02  2.3128E+02  0.0000E+00     2     3  3.6667E-01  6.3333E-01
time,fu0,fu1,fu =   4.8384E+06 -1.4435E-02 -2.7199E-02 -1.9115E-02  3.6667E-01  6.3333E-01
 cg2d: Sum(rhs),rhsMax =   4.66141014676680E-13  7.04590485692858E+00
(PID.TID 0000.0001)                    cg2d_init_res =    3.28825665389278E-01
(PID.TID 0000.0001)                       cg2d_iters =    24
(PID.TID 0000.0001)                         cg2d_res =    5.39216951776249E-14
(PID.TID 0000.0001) // =======================================================
(PID.TID 0000.0001) // Begin MONITOR dynamic field statistics
(PID.TID 0000.0001) // =======================================================
(PID.TID 0000.0001) %MON time_tsnumber                =                   113
(PID.TID 0000.0001) %MON time_secondsf                =   4.8816000000000E+06
(PID.TID 0000.0001) %MON dynstat_eta_max              =   8.0147595316096E-01
(PID.TID 0000.0001) %MON dynstat_eta_min              =  -1.4589394207575E+00
(PID.TID 0000.0001) %MON dynstat_eta_mean             =  -1.1250451320341E-16
(PID.TID 0000.0001) %MON dynstat_eta_sd               =   4.8332544813754E-01
(PID.TID 0000.0001) %MON dynstat_eta_del2             =   1.8875811083055E-02
(PID.TID 0000.0001) %MON dynstat_uvel_max             =   2.0280503617926E-01
(PID.TID 0000.0001) %MON dynstat_uvel_min             =  -1.4034998223476E-01
(PID.TID 0000.0001) %MON dynstat_uvel_mean            =   9.1679246591246E-04
(PID.TID 0000.0001) %MON dynstat_uvel_sd              =   1.6453804301911E-02
(PID.TID 0000.0001) %MON dynstat_uvel_del2            =   4.6224540476576E-03
(PID.TID 0000.0001) %MON dynstat_vvel_max             =   1.6889408690876E-01
(PID.TID 0000.0001) %MON dynstat_vvel_min             =  -1.4214174346230E-01
(PID.TID 0000.0001) %MON dynstat_vvel_mean            =   1.6341726932505E-03
(PID.TID 0000.0001) %MON dynstat_vvel_sd              =   1.4295076628240E-02
(PID.TID 0000.0001) %MON dynstat_vvel_del2            =   4.1506751750758E-03
(PID.TID 0000.0001) %MON dynstat_wvel_max             =   3.1950741532836E-04
(PID.TID 0000.0001) %MON dynstat_wvel_min             =  -1.7717653205588E-04
(PID.TID 0000.0001) %MON dynstat_wvel_mean            =   3.6318640644020E-23
(PID.TID 0000.0001) %MON dynstat_wvel_sd              =   1.9571377742303E-05
(PID.TID 0000.0001) %MON dynstat_wvel_del2            =   7.4214006913674E-06
(PID.TID 0000.0001) %MON dynstat_theta_max            =   2.9881193970519E+01
(PID.TID 0000.0001) %MON dynstat_theta_min            =  -1.9271187606374E+00
(PID.TID 0000.0001) %MON dynstat_theta_mean           =   3.5886274818210E+00
(PID.TID 0000.0001) %MON dynstat_theta_sd             =   4.3345295513955E+00
(PID.TID 0000.0001) %MON dynstat_theta_del2           =   1.2763216580690E-01
(PID.TID 0000.0001) %MON dynstat_salt_max             =   3.7383040170716E+01
(PID.TID 0000.0001) %MON dynstat_salt_min             =   2.9702928292562E+01
(PID.TID 0000.0001) %MON dynstat_salt_mean            =   3.4716026315833E+01
(PID.TID 0000.0001) %MON dynstat_salt_sd              =   2.9303971282999E-01
(PID.TID 0000.0001) %MON dynstat_salt_del2            =   2.2523918557662E-02
(PID.TID 0000.0001) %MON advcfl_uvel_max              =   3.3517144037063E-02
(PID.TID 0000.0001) %MON advcfl_vvel_max              =   1.6406706175439E-02
(PID.TID 0000.0001) %MON advcfl_wvel_max              =   6.0681811269662E-02
(PID.TID 0000.0001) %MON advcfl_W_hf_max              =   6.8138524933159E-02
(PID.TID 0000.0001) %MON pe_b_mean                    =   2.9892382083160E-04
(PID.TID 0000.0001) %MON ke_max                       =   2.0790833975916E-02
(PID.TID 0000.0001) %MON ke_mean                      =   2.1631777109945E-04
(PID.TID 0000.0001) %MON ke_vol                       =   1.3226782436723E+18
(PID.TID 0000.0001) %MON vort_r_min                   =  -8.3629884668831E-07
(PID.TID 0000.0001) %MON vort_r_max                   =   6.3181973074653E-07
(PID.TID 0000.0001) %MON vort_a_mean                  =  -2.5205768875860E-05
(PID.TID 0000.0001) %MON vort_a_sd                    =   7.3403414915754E-05
(PID.TID 0000.0001) %MON vort_p_mean                  =  -3.1758668905332E-05
(PID.TID 0000.0001) %MON vort_p_sd                    =   1.3126115543724E-04
(PID.TID 0000.0001) %MON surfExpan_theta_mean         =   2.3637301412599E-06
(PID.TID 0000.0001) %MON surfExpan_salt_mean          =  -3.3909401411518E-07
(PID.TID 0000.0001) // =======================================================
(PID.TID 0000.0001) // End MONITOR dynamic field statistics
(PID.TID 0000.0001) // =======================================================
time,SST,SSS,fu,fv,Q,E-P,i0,i1,a,b =   4.8816E+06 -3.9848E-01  3.4482E+01 -1.9328E-02 -1.1097E-02  2.3087E+02  0.0000E+00     2     3  3.8333E-01  6.1667E-01
time,fu0,fu1,fu =   4.8816E+06 -1.4435E-02 -2.7199E-02 -1.9328E-02  3.8333E-01  6.1667E-01
 cg2d: Sum(rhs),rhsMax =   6.91113832829160E-14  7.09712853703178E+00
(PID.TID 0000.0001)                    cg2d_init_res =    3.21323076039829E-01
(PID.TID 0000.0001)                       cg2d_iters =    24
(PID.TID 0000.0001)                         cg2d_res =    5.10000092677952E-14
(PID.TID 0000.0001) // =======================================================
(PID.TID 0000.0001) // Begin MONITOR dynamic field statistics
(PID.TID 0000.0001) // =======================================================
(PID.TID 0000.0001) %MON time_tsnumber                =                   114
(PID.TID 0000.0001) %MON time_secondsf                =   4.9248000000000E+06
(PID.TID 0000.0001) %MON dynstat_eta_max              =   8.0765448861996E-01
(PID.TID 0000.0001) %MON dynstat_eta_min              =  -1.4632938336903E+00
(PID.TID 0000.0001) %MON dynstat_eta_mean             =   2.9163016683309E-16
(PID.TID 0000.0001) %MON dynstat_eta_sd               =   4.8453579828181E-01
(PID.TID 0000.0001) %MON dynstat_eta_del2             =   1.8853562494470E-02
(PID.TID 0000.0001) %MON dynstat_uvel_max             =   2.0292685506994E-01
(PID.TID 0000.0001) %MON dynstat_uvel_min             =  -1.3927723715864E-01
(PID.TID 0000.0001) %MON dynstat_uvel_mean            =   9.2411281632339E-04
(PID.TID 0000.0001) %MON dynstat_uvel_sd              =   1.6511140667191E-02
(PID.TID 0000.0001) %MON dynstat_uvel_del2            =   4.6081243204603E-03
(PID.TID 0000.0001) %MON dynstat_vvel_max             =   1.6974516830268E-01
(PID.TID 0000.0001) %MON dynstat_vvel_min             =  -1.4298633593283E-01
(PID.TID 0000.0001) %MON dynstat_vvel_mean            =   1.6575623299000E-03
(PID.TID 0000.0001) %MON dynstat_vvel_sd              =   1.4294249620198E-02
(PID.TID 0000.0001) %MON dynstat_vvel_del2            =   4.1445250508485E-03
(PID.TID 0000.0001) %MON dynstat_wvel_max             =   3.1419725381177E-04
(PID.TID 0000.0001) %MON dynstat_wvel_min             =  -1.7744018516250E-04
(PID.TID 0000.0001) %MON dynstat_wvel_mean            =  -4.5111865060842E-23
(PID.TID 0000.0001) %MON dynstat_wvel_sd              =   1.9477112676380E-05
(PID.TID 0000.0001) %MON dynstat_wvel_del2            =   7.3809986214366E-06
(PID.TID 0000.0001) %MON dynstat_theta_max            =   2.9884283858301E+01
(PID.TID 0000.0001) %MON dynstat_theta_min            =  -1.9290501134152E+00
(PID.TID 0000.0001) %MON dynstat_theta_mean           =   3.5886432237466E+00
(PID.TID 0000.0001) %MON dynstat_theta_sd             =   4.3346714624115E+00
(PID.TID 0000.0001) %MON dynstat_theta_del2           =   1.2749362303905E-01
(PID.TID 0000.0001) %MON dynstat_salt_max             =   3.7382576471090E+01
(PID.TID 0000.0001) %MON dynstat_salt_min             =   2.9701651335490E+01
(PID.TID 0000.0001) %MON dynstat_salt_mean            =   3.4716030852688E+01
(PID.TID 0000.0001) %MON dynstat_salt_sd              =   2.9300696494669E-01
(PID.TID 0000.0001) %MON dynstat_salt_del2            =   2.2493644786715E-02
(PID.TID 0000.0001) %MON advcfl_uvel_max              =   3.3537276778253E-02
(PID.TID 0000.0001) %MON advcfl_vvel_max              =   1.6489381908006E-02
(PID.TID 0000.0001) %MON advcfl_wvel_max              =   6.4270280895408E-02
(PID.TID 0000.0001) %MON advcfl_W_hf_max              =   7.2174804823177E-02
(PID.TID 0000.0001) %MON pe_b_mean                    =   3.0042283358343E-04
(PID.TID 0000.0001) %MON ke_max                       =   2.1107519427515E-02
(PID.TID 0000.0001) %MON ke_mean                      =   2.1720654067913E-04
(PID.TID 0000.0001) %MON ke_vol                       =   1.3226782436723E+18
(PID.TID 0000.0001) %MON vort_r_min                   =  -8.3660660982361E-07
(PID.TID 0000.0001) %MON vort_r_max                   =   6.3046068031065E-07
(PID.TID 0000.0001) %MON vort_a_mean                  =  -2.5205768908115E-05
(PID.TID 0000.0001) %MON vort_a_sd                    =   7.3403415144009E-05
(PID.TID 0000.0001) %MON vort_p_mean                  =  -3.1758668945973E-05
(PID.TID 0000.0001) %MON vort_p_sd                    =   1.3126110896820E-04
(PID.TID 0000.0001) %MON surfExpan_theta_mean         =   2.1307580930867E-06
(PID.TID 0000.0001) %MON surfExpan_salt_mean          =  -3.8464009739231E-07
(PID.TID 0000.0001) // =======================================================
(PID.TID 0000.0001) // End MONITOR dynamic field statistics
(PID.TID 0000.0001) // =======================================================
time,SST,SSS,fu,fv,Q,E-P,i0,i1,a,b =   4.9248E+06 -3.9268E-01  3.4484E+01 -1.9540E-02 -1.0813E-02  2.3045E+02  0.0000E+00     2     3  4.0000E-01  6.0000E-01
time,fu0,fu1,fu =   4.9248E+06 -1.4435E-02 -2.7199E-02 -1.9540E-02  4.0000E-01  6.0000E-01
 cg2d: Sum(rhs),rhsMax =  -3.38132299937399E-13  7.13562365434571E+00
(PID.TID 0000.0001)                    cg2d_init_res =    3.12662123914357E-01
(PID.TID 0000.0001)                       cg2d_iters =    24
(PID.TID 0000.0001)                         cg2d_res =    4.92032813760283E-14
(PID.TID 0000.0001) // =======================================================
(PID.TID 0000.0001) // Begin MONITOR dynamic field statistics
(PID.TID 0000.0001) // =======================================================
(PID.TID 0000.0001) %MON time_tsnumber                =                   115
(PID.TID 0000.0001) %MON time_secondsf                =   4.9680000000000E+06
(PID.TID 0000.0001) %MON dynstat_eta_max              =   8.1237656082233E-01
(PID.TID 0000.0001) %MON dynstat_eta_min              =  -1.4671566732586E+00
(PID.TID 0000.0001) %MON dynstat_eta_mean             =   1.6960220880508E-17
(PID.TID 0000.0001) %MON dynstat_eta_sd               =   4.8573194631335E-01
(PID.TID 0000.0001) %MON dynstat_eta_del2             =   1.8843595679533E-02
(PID.TID 0000.0001) %MON dynstat_uvel_max             =   2.0225032606142E-01
(PID.TID 0000.0001) %MON dynstat_uvel_min             =  -1.3809159907037E-01
(PID.TID 0000.0001) %MON dynstat_uvel_mean            =   9.3150932455762E-04
(PID.TID 0000.0001) %MON dynstat_uvel_sd              =   1.6559845176664E-02
(PID.TID 0000.0001) %MON dynstat_uvel_del2            =   4.5921798569301E-03
(PID.TID 0000.0001) %MON dynstat_vvel_max             =   1.7044542465626E-01
(PID.TID 0000.0001) %MON dynstat_vvel_min             =  -1.4364868038162E-01
(PID.TID 0000.0001) %MON dynstat_vvel_mean            =   1.6735191099946E-03
(PID.TID 0000.0001) %MON dynstat_vvel_sd              =   1.4291050812677E-02
(PID.TID 0000.0001) %MON dynstat_vvel_del2            =   4.1380706973573E-03
(PID.TID 0000.0001) %MON dynstat_wvel_max             =   3.0890766407115E-04
(PID.TID 0000.0001) %MON dynstat_wvel_min             =  -1.7712865523076E-04
(PID.TID 0000.0001) %MON dynstat_wvel_mean            =   3.2621857136093E-22
(PID.TID 0000.0001) %MON dynstat_wvel_sd              =   1.9377841033251E-05
(PID.TID 0000.0001) %MON dynstat_wvel_del2            =   7.3398820848140E-06
(PID.TID 0000.0001) %MON dynstat_theta_max            =   2.9886901883779E+01
(PID.TID 0000.0001) %MON dynstat_theta_min            =  -1.9280857097341E+00
(PID.TID 0000.0001) %MON dynstat_theta_mean           =   3.5886605193198E+00
(PID.TID 0000.0001) %MON dynstat_theta_sd             =   4.3348159603898E+00
(PID.TID 0000.0001) %MON dynstat_theta_del2           =   1.2735349147414E-01
(PID.TID 0000.0001) %MON dynstat_salt_max             =   3.7382112978958E+01
(PID.TID 0000.0001) %MON dynstat_salt_min             =   2.9700413782424E+01
(PID.TID 0000.0001) %MON dynstat_salt_mean            =   3.4716035866206E+01
(PID.TID 0000.0001) %MON dynstat_salt_sd              =   2.9297425966964E-01
(PID.TID 0000.0001) %MON dynstat_salt_del2            =   2.2463960006199E-02
(PID.TID 0000.0001) %MON advcfl_uvel_max              =   3.3425468311111E-02
(PID.TID 0000.0001) %MON advcfl_vvel_max              =   1.6557406197376E-02
(PID.TID 0000.0001) %MON advcfl_wvel_max              =   6.6544582329069E-02
(PID.TID 0000.0001) %MON advcfl_W_hf_max              =   7.4729549495441E-02
(PID.TID 0000.0001) %MON pe_b_mean                    =   3.0190794051149E-04
(PID.TID 0000.0001) %MON ke_max                       =   2.1287150502705E-02
(PID.TID 0000.0001) %MON ke_mean                      =   2.1792735632625E-04
(PID.TID 0000.0001) %MON ke_vol                       =   1.3226782436723E+18
(PID.TID 0000.0001) %MON vort_r_min                   =  -8.3605167013281E-07
(PID.TID 0000.0001) %MON vort_r_max                   =   6.2728133282734E-07
(PID.TID 0000.0001) %MON vort_a_mean                  =  -2.5205768939521E-05
(PID.TID 0000.0001) %MON vort_a_sd                    =   7.3403415389526E-05
(PID.TID 0000.0001) %MON vort_p_mean                  =  -3.1758668985544E-05
(PID.TID 0000.0001) %MON vort_p_sd                    =   1.3126106622402E-04
(PID.TID 0000.0001) %MON surfExpan_theta_mean         =   1.9342367299908E-06
(PID.TID 0000.0001) %MON surfExpan_salt_mean          =  -4.2835868046197E-07
(PID.TID 0000.0001) // =======================================================
(PID.TID 0000.0001) // End MONITOR dynamic field statistics
(PID.TID 0000.0001) // =======================================================
time,SST,SSS,fu,fv,Q,E-P,i0,i1,a,b =   4.9680E+06 -3.8688E-01  3.4487E+01 -1.9753E-02 -1.0528E-02  2.3003E+02  0.0000E+00     2     3  4.1667E-01  5.8333E-01
time,fu0,fu1,fu =   4.9680E+06 -1.4435E-02 -2.7199E-02 -1.9753E-02  4.1667E-01  5.8333E-01
 cg2d: Sum(rhs),rhsMax =  -1.19043663815432E-13  7.15894887254193E+00
(PID.TID 0000.0001)                    cg2d_init_res =    3.03393783227065E-01
(PID.TID 0000.0001)                       cg2d_iters =    24
(PID.TID 0000.0001)                         cg2d_res =    4.88629131387886E-14
(PID.TID 0000.0001) // =======================================================
(PID.TID 0000.0001) // Begin MONITOR dynamic field statistics
(PID.TID 0000.0001) // =======================================================
(PID.TID 0000.0001) %MON time_tsnumber                =                   116
(PID.TID 0000.0001) %MON time_secondsf                =   5.0112000000000E+06
(PID.TID 0000.0001) %MON dynstat_eta_max              =   8.1536776702496E-01
(PID.TID 0000.0001) %MON dynstat_eta_min              =  -1.4706829259583E+00
(PID.TID 0000.0001) %MON dynstat_eta_mean             =   1.8070595273618E-16
(PID.TID 0000.0001) %MON dynstat_eta_sd               =   4.8690765526592E-01
(PID.TID 0000.0001) %MON dynstat_eta_del2             =   1.8854161731180E-02
(PID.TID 0000.0001) %MON dynstat_uvel_max             =   2.0080339586580E-01
(PID.TID 0000.0001) %MON dynstat_uvel_min             =  -1.3680119886363E-01
(PID.TID 0000.0001) %MON dynstat_uvel_mean            =   9.3863725812865E-04
(PID.TID 0000.0001) %MON dynstat_uvel_sd              =   1.6600797473827E-02
(PID.TID 0000.0001) %MON dynstat_uvel_del2            =   4.5754002222831E-03
(PID.TID 0000.0001) %MON dynstat_vvel_max             =   1.7099512310821E-01
(PID.TID 0000.0001) %MON dynstat_vvel_min             =  -1.4413561607083E-01
(PID.TID 0000.0001) %MON dynstat_vvel_mean            =   1.6825219610622E-03
(PID.TID 0000.0001) %MON dynstat_vvel_sd              =   1.4283854850367E-02
(PID.TID 0000.0001) %MON dynstat_vvel_del2            =   4.1304512411246E-03
(PID.TID 0000.0001) %MON dynstat_wvel_max             =   3.0366201633678E-04
(PID.TID 0000.0001) %MON dynstat_wvel_min             =  -1.7628566524102E-04
(PID.TID 0000.0001) %MON dynstat_wvel_mean            =  -3.4444876039084E-22
(PID.TID 0000.0001) %MON dynstat_wvel_sd              =   1.9273724616053E-05
(PID.TID 0000.0001) %MON dynstat_wvel_del2            =   7.2975788493786E-06
(PID.TID 0000.0001) %MON dynstat_theta_max            =   2.9888962430076E+01
(PID.TID 0000.0001) %MON dynstat_theta_min            =  -1.9277394022124E+00
(PID.TID 0000.0001) %MON dynstat_theta_mean           =   3.5886788735855E+00
(PID.TID 0000.0001) %MON dynstat_theta_sd             =   4.3349610157246E+00
(PID.TID 0000.0001) %MON dynstat_theta_del2           =   1.2721365623638E-01
(PID.TID 0000.0001) %MON dynstat_salt_max             =   3.7381651410192E+01
(PID.TID 0000.0001) %MON dynstat_salt_min             =   2.9699215353739E+01
(PID.TID 0000.0001) %MON dynstat_salt_mean            =   3.4716041314052E+01
(PID.TID 0000.0001) %MON dynstat_salt_sd              =   2.9294160095824E-01
(PID.TID 0000.0001) %MON dynstat_salt_del2            =   2.2437012320930E-02
(PID.TID 0000.0001) %MON advcfl_uvel_max              =   3.3186337327523E-02
(PID.TID 0000.0001) %MON advcfl_vvel_max              =   1.6610804993931E-02
(PID.TID 0000.0001) %MON advcfl_wvel_max              =   6.7667390901756E-02
(PID.TID 0000.0001) %MON advcfl_W_hf_max              =   7.5818130620707E-02
(PID.TID 0000.0001) %MON pe_b_mean                    =   3.0337123916681E-04
(PID.TID 0000.0001) %MON ke_max                       =   2.1329163783193E-02
(PID.TID 0000.0001) %MON ke_mean                      =   2.1847162522126E-04
(PID.TID 0000.0001) %MON ke_vol                       =   1.3226782436723E+18
(PID.TID 0000.0001) %MON vort_r_min                   =  -8.3470835487210E-07
(PID.TID 0000.0001) %MON vort_r_max                   =   6.2234810039923E-07
(PID.TID 0000.0001) %MON vort_a_mean                  =  -2.5205768969777E-05
(PID.TID 0000.0001) %MON vort_a_sd                    =   7.3403415556897E-05
(PID.TID 0000.0001) %MON vort_p_mean                  =  -3.1758669023665E-05
(PID.TID 0000.0001) %MON vort_p_sd                    =   1.3126102710898E-04
(PID.TID 0000.0001) %MON surfExpan_theta_mean         =   1.7798987337203E-06
(PID.TID 0000.0001) %MON surfExpan_salt_mean          =  -4.6910451260813E-07
(PID.TID 0000.0001) // =======================================================
(PID.TID 0000.0001) // End MONITOR dynamic field statistics
(PID.TID 0000.0001) // =======================================================
time,SST,SSS,fu,fv,Q,E-P,i0,i1,a,b =   5.0112E+06 -3.8108E-01  3.4490E+01 -1.9966E-02 -1.0244E-02  2.2961E+02  0.0000E+00     2     3  4.3333E-01  5.6667E-01
time,fu0,fu1,fu =   5.0112E+06 -1.4435E-02 -2.7199E-02 -1.9966E-02  4.3333E-01  5.6667E-01
 cg2d: Sum(rhs),rhsMax =  -1.55736534779294E-13  7.16526422262876E+00
(PID.TID 0000.0001)                    cg2d_init_res =    2.94125378150190E-01
(PID.TID 0000.0001)                       cg2d_iters =    24
(PID.TID 0000.0001)                         cg2d_res =    5.00423761093337E-14
(PID.TID 0000.0001) // =======================================================
(PID.TID 0000.0001) // Begin MONITOR dynamic field statistics
(PID.TID 0000.0001) // =======================================================
(PID.TID 0000.0001) %MON time_tsnumber                =                   117
(PID.TID 0000.0001) %MON time_secondsf                =   5.0544000000000E+06
(PID.TID 0000.0001) %MON dynstat_eta_max              =   8.1642134397850E-01
(PID.TID 0000.0001) %MON dynstat_eta_min              =  -1.4740116287776E+00
(PID.TID 0000.0001) %MON dynstat_eta_mean             =  -1.4051011040678E-16
(PID.TID 0000.0001) %MON dynstat_eta_sd               =   4.8805745498397E-01
(PID.TID 0000.0001) %MON dynstat_eta_del2             =   1.8856778131350E-02
(PID.TID 0000.0001) %MON dynstat_uvel_max             =   1.9862724662441E-01
(PID.TID 0000.0001) %MON dynstat_uvel_min             =  -1.3618146795604E-01
(PID.TID 0000.0001) %MON dynstat_uvel_mean            =   9.4514005092384E-04
(PID.TID 0000.0001) %MON dynstat_uvel_sd              =   1.6635002825778E-02
(PID.TID 0000.0001) %MON dynstat_uvel_del2            =   4.5586487500633E-03
(PID.TID 0000.0001) %MON dynstat_vvel_max             =   1.7139516749209E-01
(PID.TID 0000.0001) %MON dynstat_vvel_min             =  -1.4445545672433E-01
(PID.TID 0000.0001) %MON dynstat_vvel_mean            =   1.6851304012230E-03
(PID.TID 0000.0001) %MON dynstat_vvel_sd              =   1.4271252804434E-02
(PID.TID 0000.0001) %MON dynstat_vvel_del2            =   4.1223221103405E-03
(PID.TID 0000.0001) %MON dynstat_wvel_max             =   2.9848072352800E-04
(PID.TID 0000.0001) %MON dynstat_wvel_min             =  -1.7551351032704E-04
(PID.TID 0000.0001) %MON dynstat_wvel_mean            =  -2.6453476551733E-22
(PID.TID 0000.0001) %MON dynstat_wvel_sd              =   1.9165200075714E-05
(PID.TID 0000.0001) %MON dynstat_wvel_del2            =   7.2527135706099E-06
(PID.TID 0000.0001) %MON dynstat_theta_max            =   2.9890412066930E+01
(PID.TID 0000.0001) %MON dynstat_theta_min            =  -1.9273585647378E+00
(PID.TID 0000.0001) %MON dynstat_theta_mean           =   3.5886977216024E+00
(PID.TID 0000.0001) %MON dynstat_theta_sd             =   4.3351045061903E+00
(PID.TID 0000.0001) %MON dynstat_theta_del2           =   1.2708971428346E-01
(PID.TID 0000.0001) %MON dynstat_salt_max             =   3.7381193400103E+01
(PID.TID 0000.0001) %MON dynstat_salt_min             =   2.9698055490110E+01
(PID.TID 0000.0001) %MON dynstat_salt_mean            =   3.4716047141039E+01
(PID.TID 0000.0001) %MON dynstat_salt_sd              =   2.9290938623015E-01
(PID.TID 0000.0001) %MON dynstat_salt_del2            =   2.2414960189433E-02
(PID.TID 0000.0001) %MON advcfl_uvel_max              =   3.2826689909768E-02
(PID.TID 0000.0001) %MON advcfl_vvel_max              =   1.6649666097855E-02
(PID.TID 0000.0001) %MON advcfl_wvel_max              =   6.7368774474328E-02
(PID.TID 0000.0001) %MON advcfl_W_hf_max              =   7.5490076362582E-02
(PID.TID 0000.0001) %MON pe_b_mean                    =   3.0480571247792E-04
(PID.TID 0000.0001) %MON ke_max                       =   2.1235817093505E-02
(PID.TID 0000.0001) %MON ke_mean                      =   2.1883606510868E-04
(PID.TID 0000.0001) %MON ke_vol                       =   1.3226782436723E+18
(PID.TID 0000.0001) %MON vort_r_min                   =  -8.3265412367314E-07
(PID.TID 0000.0001) %MON vort_r_max                   =   6.1575274941699E-07
(PID.TID 0000.0001) %MON vort_a_mean                  =  -2.5205768998587E-05
(PID.TID 0000.0001) %MON vort_a_sd                    =   7.3403415551317E-05
(PID.TID 0000.0001) %MON vort_p_mean                  =  -3.1758669059965E-05
(PID.TID 0000.0001) %MON vort_p_sd                    =   1.3126099147477E-04
(PID.TID 0000.0001) %MON surfExpan_theta_mean         =   1.6725060107654E-06
(PID.TID 0000.0001) %MON surfExpan_salt_mean          =  -5.0577898322710E-07
(PID.TID 0000.0001) // =======================================================
(PID.TID 0000.0001) // End MONITOR dynamic field statistics
(PID.TID 0000.0001) // =======================================================
time,SST,SSS,fu,fv,Q,E-P,i0,i1,a,b =   5.0544E+06 -3.7528E-01  3.4492E+01 -2.0179E-02 -9.9597E-03  2.2919E+02  0.0000E+00     2     3  4.5000E-01  5.5000E-01
time,fu0,fu1,fu =   5.0544E+06 -1.4435E-02 -2.7199E-02 -2.0179E-02  4.5000E-01  5.5000E-01
 cg2d: Sum(rhs),rhsMax =   4.94854157651048E-13  7.15340831820001E+00
(PID.TID 0000.0001)                    cg2d_init_res =    2.85501743093041E-01
(PID.TID 0000.0001)                       cg2d_iters =    24
(PID.TID 0000.0001)                         cg2d_res =    5.23404098297939E-14
(PID.TID 0000.0001) // =======================================================
(PID.TID 0000.0001) // Begin MONITOR dynamic field statistics
(PID.TID 0000.0001) // =======================================================
(PID.TID 0000.0001) %MON time_tsnumber                =                   118
(PID.TID 0000.0001) %MON time_secondsf                =   5.0976000000000E+06
(PID.TID 0000.0001) %MON dynstat_eta_max              =   8.1540660075545E-01
(PID.TID 0000.0001) %MON dynstat_eta_min              =  -1.4772617966259E+00
(PID.TID 0000.0001) %MON dynstat_eta_mean             =   5.6309779529256E-16
(PID.TID 0000.0001) %MON dynstat_eta_sd               =   4.8917727809900E-01
(PID.TID 0000.0001) %MON dynstat_eta_del2             =   1.8874641823662E-02
(PID.TID 0000.0001) %MON dynstat_uvel_max             =   1.9577512341060E-01
(PID.TID 0000.0001) %MON dynstat_uvel_min             =  -1.3621416285643E-01
(PID.TID 0000.0001) %MON dynstat_uvel_mean            =   9.5065536695269E-04
(PID.TID 0000.0001) %MON dynstat_uvel_sd              =   1.6663467497401E-02
(PID.TID 0000.0001) %MON dynstat_uvel_del2            =   4.5432995045564E-03
(PID.TID 0000.0001) %MON dynstat_vvel_max             =   1.7164700454910E-01
(PID.TID 0000.0001) %MON dynstat_vvel_min             =  -1.4461775982657E-01
(PID.TID 0000.0001) %MON dynstat_vvel_mean            =   1.6819596636547E-03
(PID.TID 0000.0001) %MON dynstat_vvel_sd              =   1.4252134685529E-02
(PID.TID 0000.0001) %MON dynstat_vvel_del2            =   4.1127149375057E-03
(PID.TID 0000.0001) %MON dynstat_wvel_max             =   2.9338095527789E-04
(PID.TID 0000.0001) %MON dynstat_wvel_min             =  -1.7576823210309E-04
(PID.TID 0000.0001) %MON dynstat_wvel_mean            =   3.6363673954600E-22
(PID.TID 0000.0001) %MON dynstat_wvel_sd              =   1.9052934608349E-05
(PID.TID 0000.0001) %MON dynstat_wvel_del2            =   7.2075963944340E-06
(PID.TID 0000.0001) %MON dynstat_theta_max            =   2.9891205932352E+01
(PID.TID 0000.0001) %MON dynstat_theta_min            =  -1.9327922797531E+00
(PID.TID 0000.0001) %MON dynstat_theta_mean           =   3.5887164476142E+00
(PID.TID 0000.0001) %MON dynstat_theta_sd             =   4.3352456550903E+00
(PID.TID 0000.0001) %MON dynstat_theta_del2           =   1.2694482146770E-01
(PID.TID 0000.0001) %MON dynstat_salt_max             =   3.7380740428539E+01
(PID.TID 0000.0001) %MON dynstat_salt_min             =   2.9696933332188E+01
(PID.TID 0000.0001) %MON dynstat_salt_mean            =   3.4716053281568E+01
(PID.TID 0000.0001) %MON dynstat_salt_sd              =   2.9287807523611E-01
(PID.TID 0000.0001) %MON dynstat_salt_del2            =   2.2388801895774E-02
(PID.TID 0000.0001) %MON advcfl_uvel_max              =   3.2355325754469E-02
(PID.TID 0000.0001) %MON advcfl_vvel_max              =   1.6674130048453E-02
(PID.TID 0000.0001) %MON advcfl_wvel_max              =   6.5730587238607E-02
(PID.TID 0000.0001) %MON advcfl_W_hf_max              =   7.3827179032295E-02
(PID.TID 0000.0001) %MON pe_b_mean                    =   3.0620603967053E-04
(PID.TID 0000.0001) %MON ke_max                       =   2.1012067417641E-02
(PID.TID 0000.0001) %MON ke_mean                      =   2.1902182076884E-04
(PID.TID 0000.0001) %MON ke_vol                       =   1.3226782436723E+18
(PID.TID 0000.0001) %MON vort_r_min                   =  -8.2996805435057E-07
(PID.TID 0000.0001) %MON vort_r_max                   =   6.0761107399930E-07
(PID.TID 0000.0001) %MON vort_a_mean                  =  -2.5205769024235E-05
(PID.TID 0000.0001) %MON vort_a_sd                    =   7.3403415295083E-05
(PID.TID 0000.0001) %MON vort_p_mean                  =  -3.1758669092281E-05
(PID.TID 0000.0001) %MON vort_p_sd                    =   1.3126095918154E-04
(PID.TID 0000.0001) %MON surfExpan_theta_mean         =   1.6181944812575E-06
(PID.TID 0000.0001) %MON surfExpan_salt_mean          =  -5.3714492099975E-07
(PID.TID 0000.0001) // =======================================================
(PID.TID 0000.0001) // End MONITOR dynamic field statistics
(PID.TID 0000.0001) // =======================================================
time,SST,SSS,fu,fv,Q,E-P,i0,i1,a,b =   5.0976E+06 -3.6948E-01  3.4495E+01 -2.0391E-02 -9.6754E-03  2.2877E+02  0.0000E+00     2     3  4.6667E-01  5.3333E-01
time,fu0,fu1,fu =   5.0976E+06 -1.4435E-02 -2.7199E-02 -2.0391E-02  4.6667E-01  5.3333E-01
 cg2d: Sum(rhs),rhsMax =   9.07607322631065E-15  7.12293529998386E+00
(PID.TID 0000.0001)                    cg2d_init_res =    2.78011813010134E-01
(PID.TID 0000.0001)                       cg2d_iters =    24
(PID.TID 0000.0001)                         cg2d_res =    5.51215695070844E-14
(PID.TID 0000.0001) // =======================================================
(PID.TID 0000.0001) // Begin MONITOR dynamic field statistics
(PID.TID 0000.0001) // =======================================================
(PID.TID 0000.0001) %MON time_tsnumber                =                   119
(PID.TID 0000.0001) %MON time_secondsf                =   5.1408000000000E+06
(PID.TID 0000.0001) %MON dynstat_eta_max              =   8.1227310414392E-01
(PID.TID 0000.0001) %MON dynstat_eta_min              =  -1.4805295598449E+00
(PID.TID 0000.0001) %MON dynstat_eta_mean             =   1.3076916635094E-16
(PID.TID 0000.0001) %MON dynstat_eta_sd               =   4.9026491504994E-01
(PID.TID 0000.0001) %MON dynstat_eta_del2             =   1.8903266751604E-02
(PID.TID 0000.0001) %MON dynstat_uvel_max             =   1.9231123940477E-01
(PID.TID 0000.0001) %MON dynstat_uvel_min             =  -1.3619054705706E-01
(PID.TID 0000.0001) %MON dynstat_uvel_mean            =   9.5483015220832E-04
(PID.TID 0000.0001) %MON dynstat_uvel_sd              =   1.6687087749783E-02
(PID.TID 0000.0001) %MON dynstat_uvel_del2            =   4.5289515709418E-03
(PID.TID 0000.0001) %MON dynstat_vvel_max             =   1.7175252231541E-01
(PID.TID 0000.0001) %MON dynstat_vvel_min             =  -1.4463308496075E-01
(PID.TID 0000.0001) %MON dynstat_vvel_mean            =   1.6736650747674E-03
(PID.TID 0000.0001) %MON dynstat_vvel_sd              =   1.4225749644379E-02
(PID.TID 0000.0001) %MON dynstat_vvel_del2            =   4.1027799970424E-03
(PID.TID 0000.0001) %MON dynstat_wvel_max             =   2.8837659949719E-04
(PID.TID 0000.0001) %MON dynstat_wvel_min             =  -1.7589640735527E-04
(PID.TID 0000.0001) %MON dynstat_wvel_mean            =  -7.3232221724911E-23
(PID.TID 0000.0001) %MON dynstat_wvel_sd              =   1.8937544457632E-05
(PID.TID 0000.0001) %MON dynstat_wvel_del2            =   7.1634965195786E-06
(PID.TID 0000.0001) %MON dynstat_theta_max            =   2.9891307656913E+01
(PID.TID 0000.0001) %MON dynstat_theta_min            =  -1.9305193639891E+00
(PID.TID 0000.0001) %MON dynstat_theta_mean           =   3.5887344155848E+00
(PID.TID 0000.0001) %MON dynstat_theta_sd             =   4.3353775592233E+00
(PID.TID 0000.0001) %MON dynstat_theta_del2           =   1.2694096883063E-01
(PID.TID 0000.0001) %MON dynstat_salt_max             =   3.7380293705265E+01
(PID.TID 0000.0001) %MON dynstat_salt_min             =   2.9695847708513E+01
(PID.TID 0000.0001) %MON dynstat_salt_mean            =   3.4716059654839E+01
(PID.TID 0000.0001) %MON dynstat_salt_sd              =   2.9284364935583E-01
(PID.TID 0000.0001) %MON dynstat_salt_del2            =   2.2391782547292E-02
(PID.TID 0000.0001) %MON advcfl_uvel_max              =   3.1782857233280E-02
(PID.TID 0000.0001) %MON advcfl_vvel_max              =   1.6684380253299E-02
(PID.TID 0000.0001) %MON advcfl_wvel_max              =   6.2863130476440E-02
(PID.TID 0000.0001) %MON advcfl_W_hf_max              =   7.0939231565300E-02
(PID.TID 0000.0001) %MON pe_b_mean                    =   3.0756919065903E-04
(PID.TID 0000.0001) %MON ke_max                       =   2.0665391429144E-02
(PID.TID 0000.0001) %MON ke_mean                      =   2.1903349324849E-04
(PID.TID 0000.0001) %MON ke_vol                       =   1.3226782436723E+18
(PID.TID 0000.0001) %MON vort_r_min                   =  -8.2672939391480E-07
(PID.TID 0000.0001) %MON vort_r_max                   =   5.9806085029603E-07
(PID.TID 0000.0001) %MON vort_a_mean                  =  -2.5205769049284E-05
(PID.TID 0000.0001) %MON vort_a_sd                    =   7.3403414671828E-05
(PID.TID 0000.0001) %MON vort_p_mean                  =  -3.1758669123842E-05
(PID.TID 0000.0001) %MON vort_p_sd                    =   1.3126092983431E-04
(PID.TID 0000.0001) %MON surfExpan_theta_mean         =   1.6172752871021E-06
(PID.TID 0000.0001) %MON surfExpan_salt_mean          =  -5.6282610419788E-07
(PID.TID 0000.0001) // =======================================================
(PID.TID 0000.0001) // End MONITOR dynamic field statistics
(PID.TID 0000.0001) // =======================================================
time,SST,SSS,fu,fv,Q,E-P,i0,i1,a,b =   5.1408E+06 -3.6368E-01  3.4497E+01 -2.0604E-02 -9.3911E-03  2.2836E+02  0.0000E+00     2     3  4.8333E-01  5.1667E-01
time,fu0,fu1,fu =   5.1408E+06 -1.4435E-02 -2.7199E-02 -2.0604E-02  4.8333E-01  5.1667E-01
 cg2d: Sum(rhs),rhsMax =  -5.73319169916431E-13  7.07410852249116E+00
(PID.TID 0000.0001)                    cg2d_init_res =    2.72257114425725E-01
(PID.TID 0000.0001)                       cg2d_iters =    24
(PID.TID 0000.0001)                         cg2d_res =    5.74793889634023E-14
(PID.TID 0000.0001) // =======================================================
(PID.TID 0000.0001) // Begin MONITOR dynamic field statistics
(PID.TID 0000.0001) // =======================================================
(PID.TID 0000.0001) %MON time_tsnumber                =                   120
(PID.TID 0000.0001) %MON time_secondsf                =   5.1840000000000E+06
(PID.TID 0000.0001) %MON dynstat_eta_max              =   8.0705034131771E-01
(PID.TID 0000.0001) %MON dynstat_eta_min              =  -1.4838863893072E+00
(PID.TID 0000.0001) %MON dynstat_eta_mean             =  -9.9883923131798E-17
(PID.TID 0000.0001) %MON dynstat_eta_sd               =   4.9132047144977E-01
(PID.TID 0000.0001) %MON dynstat_eta_del2             =   1.8916860669495E-02
(PID.TID 0000.0001) %MON dynstat_uvel_max             =   1.8830940379167E-01
(PID.TID 0000.0001) %MON dynstat_uvel_min             =  -1.3611341190885E-01
(PID.TID 0000.0001) %MON dynstat_uvel_mean            =   9.5732613580769E-04
(PID.TID 0000.0001) %MON dynstat_uvel_sd              =   1.6706563037363E-02
(PID.TID 0000.0001) %MON dynstat_uvel_del2            =   4.5159278617793E-03
(PID.TID 0000.0001) %MON dynstat_vvel_max             =   1.7171394321951E-01
(PID.TID 0000.0001) %MON dynstat_vvel_min             =  -1.4451274745268E-01
(PID.TID 0000.0001) %MON dynstat_vvel_mean            =   1.6608738030773E-03
(PID.TID 0000.0001) %MON dynstat_vvel_sd              =   1.4191760820002E-02
(PID.TID 0000.0001) %MON dynstat_vvel_del2            =   4.0926556098153E-03
(PID.TID 0000.0001) %MON dynstat_wvel_max             =   2.8347836499533E-04
(PID.TID 0000.0001) %MON dynstat_wvel_min             =  -1.7569161740924E-04
(PID.TID 0000.0001) %MON dynstat_wvel_mean            =   1.4690337529220E-23
(PID.TID 0000.0001) %MON dynstat_wvel_sd              =   1.8819503835843E-05
(PID.TID 0000.0001) %MON dynstat_wvel_del2            =   7.1188261136985E-06
(PID.TID 0000.0001) %MON dynstat_theta_max            =   2.9890676188333E+01
(PID.TID 0000.0001) %MON dynstat_theta_min            =  -1.9280847413535E+00
(PID.TID 0000.0001) %MON dynstat_theta_mean           =   3.5887509341789E+00
(PID.TID 0000.0001) %MON dynstat_theta_sd             =   4.3355060128535E+00
(PID.TID 0000.0001) %MON dynstat_theta_del2           =   1.2680417285389E-01
(PID.TID 0000.0001) %MON dynstat_salt_max             =   3.7379850212250E+01
(PID.TID 0000.0001) %MON dynstat_salt_min             =   2.9694797133340E+01
(PID.TID 0000.0001) %MON dynstat_salt_mean            =   3.4716066179484E+01
(PID.TID 0000.0001) %MON dynstat_salt_sd              =   2.9281351578930E-01
(PID.TID 0000.0001) %MON dynstat_salt_del2            =   2.2367610777429E-02
(PID.TID 0000.0001) %MON advcfl_uvel_max              =   3.1121482628469E-02
(PID.TID 0000.0001) %MON advcfl_vvel_max              =   1.6680632603499E-02
(PID.TID 0000.0001) %MON advcfl_wvel_max              =   5.8901013573955E-02
(PID.TID 0000.0001) %MON advcfl_W_hf_max              =   6.6959929535718E-02
(PID.TID 0000.0001) %MON pe_b_mean                    =   3.0889502946896E-04
(PID.TID 0000.0001) %MON ke_max                       =   2.0205526735186E-02
(PID.TID 0000.0001) %MON ke_mean                      =   2.1887835216492E-04
(PID.TID 0000.0001) %MON ke_vol                       =   1.3226782436723E+18
(PID.TID 0000.0001) %MON vort_r_min                   =  -8.2301620503386E-07
(PID.TID 0000.0001) %MON vort_r_max                   =   5.8725915851677E-07
(PID.TID 0000.0001) %MON vort_a_mean                  =  -2.5205769072562E-05
(PID.TID 0000.0001) %MON vort_a_sd                    =   7.3403413610606E-05
(PID.TID 0000.0001) %MON vort_p_mean                  =  -3.1758669153172E-05
(PID.TID 0000.0001) %MON vort_p_sd                    =   1.3126090316869E-04
(PID.TID 0000.0001) %MON surfExpan_theta_mean         =   1.6769022995394E-06
(PID.TID 0000.0001) %MON surfExpan_salt_mean          =  -5.8081089530909E-07
(PID.TID 0000.0001) // =======================================================
(PID.TID 0000.0001) // End MONITOR dynamic field statistics
(PID.TID 0000.0001) // =======================================================
  --> objf_test(bi,bj)   =  0.
  --> objf_tracer(bi,bj) =  0.
  --> objf_atl(bi,bj)    = -0.135436446
  local fc =  -0.135436446
  global fc =  -0.135436446
(PID.TID 0000.0001)  MDSREADFIELD: opening file: xx_theta.0000000000.001.001.data
 grad-res -------------------------------
 grad-res     0    2   44    2    1   -.135436441E+00 -.135436435E+00 -.135436446E+00
 grad-res     0    2    2    2    0   0.565258381E-06 0.565261413E-06 -.536363227E-05
(PID.TID 0000.0001)       precision_grdchk_result ADM    -1.35436440816734E-01     5.65258380839115E-07
 ph-grd  ierr ---------------------------
 ph-grd  ierr =  0, icomp =  2, ichknum =  2
(PID.TID 0000.0001) 
(PID.TID 0000.0001) // =======================================================
(PID.TID 0000.0001) // Gradient check results  >>> START <<<
(PID.TID 0000.0001) // =======================================================
(PID.TID 0000.0001) 
(PID.TID 0000.0001) 
(PID.TID 0000.0001)  EPS =  0.100E-01
(PID.TID 0000.0001) grdchk output:            procId               I        ITILEPOS        JTILEPOS           LAYER            X(I)      X(I)+/-EPS
(PID.TID 0000.0001) grdchk output:                                FC             FC1             FC2 FC1-FC2/(2*EPS)    ADJ GRAD(FC)   1-FDGRD/ADGRD
(PID.TID 0000.0001) grdchk output:                 0               1              43               2               1 0.000000000E+00 -.100000000E-01
(PID.TID 0000.0001) grdchk output:                   -.135436441E+00 -.135436433E+00 -.135436448E+00 0.756572788E-06 0.756565540E-06 -.957974629E-05
(PID.TID 0000.0001) 
(PID.TID 0000.0001) grdchk output:                 0               2              44               2               1 0.000000000E+00 -.100000000E-01
(PID.TID 0000.0001) grdchk output:                   -.135436441E+00 -.135436435E+00 -.135436446E+00 0.565261413E-06 0.565258381E-06 -.536363227E-05
(PID.TID 0000.0001) 
(PID.TID 0000.0001) 
(PID.TID 0000.0001) // =======================================================
(PID.TID 0000.0001) // Gradient check results  >>> END <<<
(PID.TID 0000.0001) // =======================================================
(PID.TID 0000.0001) 
(PID.TID 0000.0001) %CHECKPOINT         6 ckptA
(PID.TID 0000.0001)   Seconds in section "ALL                    [THE_MODEL_MAIN]":
(PID.TID 0000.0001)           User time:  1053.32996
(PID.TID 0000.0001)         System time:  7.71999977
(PID.TID 0000.0001)     Wall clock time:  1149.50806
(PID.TID 0000.0001)          No. starts: 1
(PID.TID 0000.0001)           No. stops: 1
(PID.TID 0000.0001)   Seconds in section "INITIALISE_FIXED       [THE_MODEL_MAIN]":
(PID.TID 0000.0001)           User time:  0.289999992
(PID.TID 0000.0001)         System time:  0.160000008
(PID.TID 0000.0001)     Wall clock time:  4.281847
(PID.TID 0000.0001)          No. starts: 1
(PID.TID 0000.0001)           No. stops: 1
(PID.TID 0000.0001)   Seconds in section "CTRL_PACK     [THE_MODEL_MAIN]":
(PID.TID 0000.0001)           User time:  0.150000006
(PID.TID 0000.0001)         System time:  0.0599999875
(PID.TID 0000.0001)     Wall clock time:  1.2469852
(PID.TID 0000.0001)          No. starts: 1
(PID.TID 0000.0001)           No. stops: 1
(PID.TID 0000.0001)   Seconds in section "ADTHE_MAIN_LOOP          [ADJOINT RUN]":
(PID.TID 0000.0001)           User time:  605.57001
(PID.TID 0000.0001)         System time:  4.39999987
(PID.TID 0000.0001)     Wall clock time:  633.728918
(PID.TID 0000.0001)          No. starts: 1
(PID.TID 0000.0001)           No. stops: 1
(PID.TID 0000.0001)   Seconds in section "EXTERNAL_FIELDS_LOAD[FORWARD_STEP]":
(PID.TID 0000.0001)           User time:  1.18975282
(PID.TID 0000.0001)         System time:  0.0800008774
(PID.TID 0000.0001)     Wall clock time:  2.65252399
(PID.TID 0000.0001)          No. starts: 720
(PID.TID 0000.0001)           No. stops: 720
(PID.TID 0000.0001)   Seconds in section "DO_ATMOSPHERIC_PHYS [FORWARD_STEP]":
(PID.TID 0000.0001)           User time:  0.0100097656
(PID.TID 0000.0001)         System time:  0.
(PID.TID 0000.0001)     Wall clock time:  0.833297014
(PID.TID 0000.0001)          No. starts: 720
(PID.TID 0000.0001)           No. stops: 720
(PID.TID 0000.0001)   Seconds in section "DO_OCEANIC_PHYS     [FORWARD_STEP]":
(PID.TID 0000.0001)           User time:  141.960003
(PID.TID 0000.0001)         System time:  0.300000221
(PID.TID 0000.0001)     Wall clock time:  143.816175
(PID.TID 0000.0001)          No. starts: 720
(PID.TID 0000.0001)           No. stops: 720
(PID.TID 0000.0001)   Seconds in section "DYNAMICS            [FORWARD_STEP]":
(PID.TID 0000.0001)           User time:  197.091029
(PID.TID 0000.0001)         System time:  0.440000594
(PID.TID 0000.0001)     Wall clock time:  199.521224
(PID.TID 0000.0001)          No. starts: 720
(PID.TID 0000.0001)           No. stops: 720
(PID.TID 0000.0001)   Seconds in section "SOLVE_FOR_PRESSURE  [FORWARD_STEP]":
(PID.TID 0000.0001)           User time:  34.6192317
(PID.TID 0000.0001)         System time:  0.180000186
(PID.TID 0000.0001)     Wall clock time:  35.8831303
(PID.TID 0000.0001)          No. starts: 720
(PID.TID 0000.0001)           No. stops: 720
(PID.TID 0000.0001)   Seconds in section "UV_CORRECTION_STEP  [FORWARD_STEP]":
(PID.TID 0000.0001)           User time:  13.4807932
(PID.TID 0000.0001)         System time:  0.0799999237
(PID.TID 0000.0001)     Wall clock time:  14.690558
(PID.TID 0000.0001)          No. starts: 720
(PID.TID 0000.0001)           No. stops: 720
(PID.TID 0000.0001)   Seconds in section "UPDATE_ETAH        [FORWARD_STEP]":
(PID.TID 0000.0001)           User time:  0.130048752
(PID.TID 0000.0001)         System time:  0.0599997044
(PID.TID 0000.0001)     Wall clock time:  0.990271091
(PID.TID 0000.0001)          No. starts: 720
(PID.TID 0000.0001)           No. stops: 720
(PID.TID 0000.0001)   Seconds in section "BLOCKING_EXCHANGES  [FORWARD_STEP]":
(PID.TID 0000.0001)           User time:  2.12040591
(PID.TID 0000.0001)         System time:  0.150000095
(PID.TID 0000.0001)     Wall clock time:  3.76747131
(PID.TID 0000.0001)          No. starts: 1440
(PID.TID 0000.0001)           No. stops: 1440
(PID.TID 0000.0001)   Seconds in section "THERMODYNAMICS      [FORWARD_STEP]":
(PID.TID 0000.0001)           User time:  211.069088
(PID.TID 0000.0001)         System time:  1.01000109
(PID.TID 0000.0001)     Wall clock time:  219.333255
(PID.TID 0000.0001)          No. starts: 720
(PID.TID 0000.0001)           No. stops: 720
(PID.TID 0000.0001)   Seconds in section "TS_CORRECTION_STEP  [FORWARD_STEP]":
(PID.TID 0000.0001)           User time:  2.16949677
(PID.TID 0000.0001)         System time:  0.0500001907
(PID.TID 0000.0001)     Wall clock time:  3.07128334
(PID.TID 0000.0001)          No. starts: 720
(PID.TID 0000.0001)           No. stops: 720
(PID.TID 0000.0001)   Seconds in section "DO_STATEVARS_DIAGS  [FORWARD_STEP]":
(PID.TID 0000.0001)           User time:  5.0800041
(PID.TID 0000.0001)         System time:  0.0899999142
(PID.TID 0000.0001)     Wall clock time:  6.00016975
(PID.TID 0000.0001)          No. starts: 720
(PID.TID 0000.0001)           No. stops: 720
(PID.TID 0000.0001)   Seconds in section "MONITOR             [FORWARD_STEP]":
(PID.TID 0000.0001)           User time:  66.4701625
(PID.TID 0000.0001)         System time:  0.229999542
(PID.TID 0000.0001)     Wall clock time:  68.1544855
(PID.TID 0000.0001)          No. starts: 720
(PID.TID 0000.0001)           No. stops: 720
(PID.TID 0000.0001)   Seconds in section "DO_THE_MODEL_IO     [FORWARD_STEP]":
(PID.TID 0000.0001)           User time:  1.65000153
(PID.TID 0000.0001)         System time:  0.789999485
(PID.TID 0000.0001)     Wall clock time:  9.29135895
(PID.TID 0000.0001)          No. starts: 720
(PID.TID 0000.0001)           No. stops: 720
(PID.TID 0000.0001)   Seconds in section "WRITE_CHECKPOINT    [FORWARD_STEP]":
(PID.TID 0000.0001)           User time:  0.0200099945
(PID.TID 0000.0001)         System time:  0.0200002193
(PID.TID 0000.0001)     Wall clock time:  0.835981607
(PID.TID 0000.0001)          No. starts: 720
(PID.TID 0000.0001)           No. stops: 720
(PID.TID 0000.0001)   Seconds in section "CTRL_PACK           [THE_MODEL_MAIN]":
(PID.TID 0000.0001)           User time:  0.0999755859
(PID.TID 0000.0001)         System time:  0.0100002289
(PID.TID 0000.0001)     Wall clock time:  0.173017025
(PID.TID 0000.0001)          No. starts: 1
(PID.TID 0000.0001)           No. stops: 1
(PID.TID 0000.0001)   Seconds in section "GRDCHK_MAIN         [THE_MODEL_MAIN]":
(PID.TID 0000.0001)           User time:  447.160034
(PID.TID 0000.0001)         System time:  3.00999975
(PID.TID 0000.0001)     Wall clock time:  507.006687
(PID.TID 0000.0001)          No. starts: 1
(PID.TID 0000.0001)           No. stops: 1
(PID.TID 0000.0001)   Seconds in section "ADJOINT SPIN-UP":
(PID.TID 0000.0001)           User time:  1.15991211
(PID.TID 0000.0001)         System time:  0.129999638
(PID.TID 0000.0001)     Wall clock time:  3.89110518
(PID.TID 0000.0001)          No. starts: 4
(PID.TID 0000.0001)           No. stops: 4
(PID.TID 0000.0001)   Seconds in section "INITIALISE_VARIA    [THE_MAIN_LOOP]":
(PID.TID 0000.0001)           User time:  0.679992676
(PID.TID 0000.0001)         System time:  0.0199999809
(PID.TID 0000.0001)     Wall clock time:  1.15624809
(PID.TID 0000.0001)          No. starts: 4
(PID.TID 0000.0001)           No. stops: 4
(PID.TID 0000.0001)   Seconds inSTOP NORMAL END statement executed
 section "MONITOR             [THE_MAIN_LOOP]":
(PID.TID 0000.0001)           User time:  0.359985352
(PID.TID 0000.0001)         System time:  0.
(PID.TID 0000.0001)     Wall clock time:  0.373713255
(PID.TID 0000.0001)          No. starts: 4
(PID.TID 0000.0001)           No. stops: 4
(PID.TID 0000.0001)   Seconds in section "DO_THE_MODEL_IO     [THE_MAIN_LOOP]":
(PID.TID 0000.0001)           User time:  0.119934082
(PID.TID 0000.0001)         System time:  0.109999657
(PID.TID 0000.0001)     Wall clock time:  2.33959889
(PID.TID 0000.0001)          No. starts: 4
(PID.TID 0000.0001)           No. stops: 4
(PID.TID 0000.0001)   Seconds in section "MAIN LOOP           [THE_MAIN_LOOP]":
(PID.TID 0000.0001)           User time:  445.870056
(PID.TID 0000.0001)         System time:  2.82000017
(PID.TID 0000.0001)     Wall clock time:  500.043298
(PID.TID 0000.0001)          No. starts: 4
(PID.TID 0000.0001)           No. stops: 4
(PID.TID 0000.0001)   Seconds in section "FORWARD_STEP        [THE_MAIN_LOOP]":
(PID.TID 0000.0001)           User time:  445.850037
(PID.TID 0000.0001)         System time:  2.72000027
(PID.TID 0000.0001)     Wall clock time:  498.256466
(PID.TID 0000.0001)          No. starts: 480
(PID.TID 0000.0001)           No. stops: 480
(PID.TID 0000.0001)   Seconds in section "COST_TILE           [THE_MAIN_LOOP]":
(PID.TID 0000.0001)           User time:  0.
(PID.TID 0000.0001)         System time:  0.0400004387
(PID.TID 0000.0001)     Wall clock time:  0.591234922
(PID.TID 0000.0001)          No. starts: 480
(PID.TID 0000.0001)           No. stops: 480
(PID.TID 0000.0001)   Seconds in section "COST_FINAL         [ADJOINT SPIN-DOWN]":
(PID.TID 0000.0001)           User time:  0.
(PID.TID 0000.0001)         System time:  0.
(PID.TID 0000.0001)     Wall clock time:  0.00596666336
(PID.TID 0000.0001)          No. starts: 4
(PID.TID 0000.0001)           No. stops: 4
(PID.TID 0000.0001)   Seconds in section "WRITE_CHECKPOINT       [THE_MODEL_MAIN]":
(PID.TID 0000.0001)           User time:  0.0599365234
(PID.TID 0000.0001)         System time:  0.0799999237
(PID.TID 0000.0001)     Wall clock time:  3.06432199
(PID.TID 0000.0001)          No. starts: 1
(PID.TID 0000.0001)           No. stops: 1
(PID.TID 0000.0001) // ======================================================
(PID.TID 0000.0001) // Tile <-> Tile communication statistics
(PID.TID 0000.0001) // ======================================================
(PID.TID 0000.0001) // o Tile number: 000001
(PID.TID 0000.0001) //         No. X exchanges =              0
(PID.TID 0000.0001) //            Max. X spins =              0
(PID.TID 0000.0001) //            Min. X spins =     1000000000
(PID.TID 0000.0001) //          Total. X spins =              0
(PID.TID 0000.0001) //            Avg. X spins =       0.00E+00
(PID.TID 0000.0001) //         No. Y exchanges =              0
(PID.TID 0000.0001) //            Max. Y spins =              0
(PID.TID 0000.0001) //            Min. Y spins =     1000000000
(PID.TID 0000.0001) //          Total. Y spins =              0
(PID.TID 0000.0001) //            Avg. Y spins =       0.00E+00
(PID.TID 0000.0001) // o Thread number: 000001
(PID.TID 0000.0001) //            No. barriers =         527128
(PID.TID 0000.0001) //      Max. barrier spins =              1
(PID.TID 0000.0001) //      Min. barrier spins =              1
(PID.TID 0000.0001) //     Total barrier spins =         527128
(PID.TID 0000.0001) //      Avg. barrier spins =       1.00E+00
