(PID.TID 0000.0001) 
(PID.TID 0000.0001) // ======================================================
(PID.TID 0000.0001) //                      MITgcm UV
(PID.TID 0000.0001) //                      =========
(PID.TID 0000.0001) // ======================================================
(PID.TID 0000.0001) // execution environment starting up...
(PID.TID 0000.0001) 
(PID.TID 0000.0001) // MITgcmUV version:  checkpoint62u
(PID.TID 0000.0001) // Build user:        jmc
(PID.TID 0000.0001) // Build host:        baudelaire
(PID.TID 0000.0001) // Build date:        Tue Mar 29 14:30:14 EDT 2011
(PID.TID 0000.0001) 
(PID.TID 0000.0001) // =======================================================
(PID.TID 0000.0001) // Execution Environment parameter file "eedata"
(PID.TID 0000.0001) // =======================================================
(PID.TID 0000.0001) ># Example "eedata" file
(PID.TID 0000.0001) ># Lines beginning "#" are comments
(PID.TID 0000.0001) ># nTx - No. threads per process in X
(PID.TID 0000.0001) ># nTy - No. threads per process in Y
(PID.TID 0000.0001) > &EEPARMS
(PID.TID 0000.0001) > /
(PID.TID 0000.0001) ># Note: Some systems use & as the
(PID.TID 0000.0001) ># namelist terminator. Other systems
(PID.TID 0000.0001) ># use a / character (as shown here).
(PID.TID 0000.0001) 
(PID.TID 0000.0001) // =======================================================
(PID.TID 0000.0001) // Computational Grid Specification ( see files "SIZE.h" )
(PID.TID 0000.0001) //                                  ( and "eedata"       )
(PID.TID 0000.0001) // =======================================================
(PID.TID 0000.0001)      nPx =    1 ; /* No. processes in X */
(PID.TID 0000.0001)      nPy =    1 ; /* No. processes in Y */
(PID.TID 0000.0001)      nSx =    1 ; /* No. tiles in X per process */
(PID.TID 0000.0001)      nSy =    1 ; /* No. tiles in Y per process */
(PID.TID 0000.0001)      sNx =    5 ; /* Tile size in X */
(PID.TID 0000.0001)      sNy =    5 ; /* Tile size in Y */
(PID.TID 0000.0001)      OLx =    2 ; /* Tile overlap distance in X */
(PID.TID 0000.0001)      OLy =    2 ; /* Tile overlap distance in Y */
(PID.TID 0000.0001)      nTx =    1 ; /* No. threads in X per process */
(PID.TID 0000.0001)      nTy =    1 ; /* No. threads in Y per process */
(PID.TID 0000.0001)       Nr =    4 ; /* No. levels in the vertical   */
(PID.TID 0000.0001)       Nx =    5 ; /* Total domain size in X ( = nPx*nSx*sNx ) */
(PID.TID 0000.0001)       Ny =    5 ; /* Total domain size in Y ( = nPy*nSy*sNy ) */
(PID.TID 0000.0001)   nTiles =    1 ; /* Total no. tiles per process ( = nSx*nSy ) */
(PID.TID 0000.0001)   nProcs =    1 ; /* Total no. processes ( = nPx*nPy ) */
(PID.TID 0000.0001) nThreads =    1 ; /* Total no. threads per process ( = nTx*nTy ) */
(PID.TID 0000.0001) usingMPI =    F ; /* Flag used to control whether MPI is in use */
(PID.TID 0000.0001)                   /*  note: To execute a program with MPI calls */
(PID.TID 0000.0001)                   /*  it must be launched appropriately e.g     */
(PID.TID 0000.0001)                   /*  "mpirun -np 64 ......"                    */
(PID.TID 0000.0001) useCoupler=    F ;/* Flag used to control communications with   */
(PID.TID 0000.0001)                   /*  other model components, through a coupler */
(PID.TID 0000.0001) printMapIncludesZeros=    F ; /* print zeros in Std.Output maps */
(PID.TID 0000.0001) maxLengthPrt1D=   65 /* maxLength of 1D array printed to StdOut */
(PID.TID 0000.0001) 
(PID.TID 0000.0001) // ======================================================
(PID.TID 0000.0001) // Mapping of tiles to threads
(PID.TID 0000.0001) // ======================================================
(PID.TID 0000.0001) // -o- Thread   1, tiles (   1:   1,   1:   1)
(PID.TID 0000.0001) 
(PID.TID 0000.0001) // ======================================================
(PID.TID 0000.0001) // Tile <-> Tile connectvity table
(PID.TID 0000.0001) // ======================================================
(PID.TID 0000.0001) // Tile number: 000001 (process no. = 000001)
(PID.TID 0000.0001) //        WEST: Tile = 000001, Process = 000001, Comm = put
(PID.TID 0000.0001) //                bi = 000001, bj = 000001
(PID.TID 0000.0001) //        EAST: Tile = 000001, Process = 000001, Comm = put
(PID.TID 0000.0001) //                bi = 000001, bj = 000001
(PID.TID 0000.0001) //       SOUTH: Tile = 000001, Process = 000001, Comm = put
(PID.TID 0000.0001) //                bi = 000001, bj = 000001
(PID.TID 0000.0001) //       NORTH: Tile = 000001, Process = 000001, Comm = put
(PID.TID 0000.0001) //                bi = 000001, bj = 000001
(PID.TID 0000.0001) 
(PID.TID 0000.0001) DEBUG_MSG: ENTERED S/R THE_MODEL_MAIN
(PID.TID 0000.0001) DEBUG_MSG: CALLING S/R INITIALISE_FIXED
(PID.TID 0000.0001)  INI_PARMS: opening model parameter file "data"
(PID.TID 0000.0001)  OPEN_COPY_DATA_FILE: opening file data
(PID.TID 0000.0001) // =======================================================
(PID.TID 0000.0001) // Parameter file "data"
(PID.TID 0000.0001) // =======================================================
(PID.TID 0000.0001) ># Model parameters
(PID.TID 0000.0001) ># Continuous equation parameters
(PID.TID 0000.0001) > &PARM01
(PID.TID 0000.0001) > tRef=4.,4.,4.,4.,
(PID.TID 0000.0001) > sRef=35.,35.,35.,35.,
(PID.TID 0000.0001) > viscAz=1.E-1,
(PID.TID 0000.0001) > viscAh=1.E5,
(PID.TID 0000.0001) ># viscA4=1.E16,
(PID.TID 0000.0001) ># useJamartWetPoints=.TRUE.,
(PID.TID 0000.0001) > no_slip_sides=.FALSE.,
(PID.TID 0000.0001) > no_slip_bottom=.TRUE.,
(PID.TID 0000.0001) > diffKhT=4.E2,
(PID.TID 0000.0001) > diffKzT=1.E-4,
(PID.TID 0000.0001) > diffKhS=0.0,
(PID.TID 0000.0001) > diffKzS=3.E-5,
(PID.TID 0000.0001) > f0=-1.1914E-04,
(PID.TID 0000.0001) > beta=1.3094E-11,
(PID.TID 0000.0001) > tAlpha=2.E-4,
(PID.TID 0000.0001) ># sBeta =7.4E-4,
(PID.TID 0000.0001) > sBeta = 0.,
(PID.TID 0000.0001) > gravity=9.81,
(PID.TID 0000.0001) > gBaro=9.81,
(PID.TID 0000.0001) > rigidLid=.FALSE.,
(PID.TID 0000.0001) > implicitFreeSurface=.TRUE.,
(PID.TID 0000.0001) > eosType='LINEAR',
(PID.TID 0000.0001) > writeStatePrec=64,
(PID.TID 0000.0001) > writeBinaryPrec=64,
(PID.TID 0000.0001) > readBinaryPrec=64,
(PID.TID 0000.0001) > hFacMin=.05,
(PID.TID 0000.0001) > smoothAbsFuncRange = -1.e-2,
(PID.TID 0000.0001) >#momAdvection = .false.,
(PID.TID 0000.0001) >#momViscosity = .false.,
(PID.TID 0000.0001) >#momPressureForcing = .false.,
(PID.TID 0000.0001) > /
(PID.TID 0000.0001) >
(PID.TID 0000.0001) >
(PID.TID 0000.0001) ># Elliptic solver parameters
(PID.TID 0000.0001) > &PARM02
(PID.TID 0000.0001) > cg2dMaxIters=100,
(PID.TID 0000.0001) > cg2dTargetResidual=1.E-13,
(PID.TID 0000.0001) > /
(PID.TID 0000.0001) ># Time stepping parameters
(PID.TID 0000.0001) > &PARM03
(PID.TID 0000.0001) > nIter0=0,
(PID.TID 0000.0001) > nTimeSteps=100,
(PID.TID 0000.0001) >#startTime = 0.,
(PID.TID 0000.0001) >#endTime = 7776000,
(PID.TID 0000.0001) > deltaTmom=3600.0,
(PID.TID 0000.0001) > deltaTtracer=3600.0,
(PID.TID 0000.0001) > abEps=0.1,
(PID.TID 0000.0001) > pChkptFreq= 7776000.0,
(PID.TID 0000.0001) > chkptFreq=  0.0,
(PID.TID 0000.0001) >#dumpFreq=   1.0,
(PID.TID 0000.0001) > monitorFreq = 43200.,
(PID.TID 0000.0001) > monitorSelect=1,
(PID.TID 0000.0001) > /
(PID.TID 0000.0001) ># Gridding parameters
(PID.TID 0000.0001) > &PARM04
(PID.TID 0000.0001) > usingCartesianGrid=.TRUE.,
(PID.TID 0000.0001) > usingSphericalPolarGrid=.FALSE.,
(PID.TID 0000.0001) > delX=5*200.E3,
(PID.TID 0000.0001) > delY=5*200.E3,
(PID.TID 0000.0001) ># 1 layer
(PID.TID 0000.0001) >#delZ=5001.,500.,500.,500.,
(PID.TID 0000.0001) ># 2 layers
(PID.TID 0000.0001) >#delZ=1000.,5000.,500.,5000.,
(PID.TID 0000.0001) ># 4 layers
(PID.TID 0000.0001) > delZ=100.,400.,500.,5000.,
(PID.TID 0000.0001) >#delZ=1000.,1500.,1500.,1500.,
(PID.TID 0000.0001) > /
(PID.TID 0000.0001) > &PARM05
(PID.TID 0000.0001) >#bathyFile='walls.bigRidge',
(PID.TID 0000.0001) > bathyFile='noWalls.bigRidge',
(PID.TID 0000.0001) >#bathyFile='box.bigRidge',
(PID.TID 0000.0001) >#bathyFile='meridchannel.bigRidge',
(PID.TID 0000.0001) > hydrogThetaFile=,
(PID.TID 0000.0001) > hydrogSaltFile=,
(PID.TID 0000.0001) > zonalWindFile='windx.sin_y',
(PID.TID 0000.0001) > meridWindFile=,
(PID.TID 0000.0001) > surfQFile=,
(PID.TID 0000.0001) > EmPmRFile=,
(PID.TID 0000.0001) > /
(PID.TID 0000.0001) 
(PID.TID 0000.0001)  INI_PARMS ; starts to read PARM01
(PID.TID 0000.0001)  INI_PARMS ; read PARM01 : OK
(PID.TID 0000.0001)  INI_PARMS ; starts to read PARM02
(PID.TID 0000.0001)  INI_PARMS ; read PARM02 : OK
(PID.TID 0000.0001)  INI_PARMS ; starts to read PARM03
(PID.TID 0000.0001)  INI_PARMS ; read PARM03 : OK
(PID.TID 0000.0001)  INI_PARMS ; starts to read PARM04
(PID.TID 0000.0001)  INI_PARMS ; read PARM04 : OK
(PID.TID 0000.0001)  INI_PARMS ; starts to read PARM05
(PID.TID 0000.0001)  INI_PARMS ; read PARM05 : OK
(PID.TID 0000.0001)  INI_PARMS: finished reading file "data"
(PID.TID 0000.0001)  PACKAGES_BOOT: opening data.pkg
(PID.TID 0000.0001)  OPEN_COPY_DATA_FILE: opening file data.pkg
(PID.TID 0000.0001) // =======================================================
(PID.TID 0000.0001) // Parameter file "data.pkg"
(PID.TID 0000.0001) // =======================================================
(PID.TID 0000.0001) >#
(PID.TID 0000.0001) ># ********
(PID.TID 0000.0001) ># Packages
(PID.TID 0000.0001) ># ********
(PID.TID 0000.0001) > &PACKAGES
(PID.TID 0000.0001) > useGMRedi    = .FALSE.,
(PID.TID 0000.0001) > useKPP       = .FALSE.,
(PID.TID 0000.0001) > useGrdchk    = .TRUE.,
(PID.TID 0000.0001) > useECCO      = .FALSE.,
(PID.TID 0000.0001) > /
(PID.TID 0000.0001) 
(PID.TID 0000.0001)  PACKAGES_BOOT: finished reading data.pkg
(PID.TID 0000.0001) OPTIM_READPARMS: opening data.optim
(PID.TID 0000.0001)  OPEN_COPY_DATA_FILE: opening file data.optim
(PID.TID 0000.0001) // =======================================================
(PID.TID 0000.0001) // Parameter file "data.optim"
(PID.TID 0000.0001) // =======================================================
(PID.TID 0000.0001) >#
(PID.TID 0000.0001) ># ********************************
(PID.TID 0000.0001) ># Off-line optimization parameters
(PID.TID 0000.0001) ># ********************************
(PID.TID 0000.0001) > &OPTIM
(PID.TID 0000.0001) > optimcycle=0,
(PID.TID 0000.0001) > /
(PID.TID 0000.0001) 
(PID.TID 0000.0001) OPTIM_READPARMS: finished reading data.optim
(PID.TID 0000.0001) CTRL_READPARMS: opening data.ctrl
(PID.TID 0000.0001)  OPEN_COPY_DATA_FILE: opening file data.ctrl
(PID.TID 0000.0001) // =======================================================
(PID.TID 0000.0001) // Parameter file "data.ctrl"
(PID.TID 0000.0001) // =======================================================
(PID.TID 0000.0001) >#
(PID.TID 0000.0001) >#
(PID.TID 0000.0001) ># *********************
(PID.TID 0000.0001) ># ECCO controlvariables
(PID.TID 0000.0001) ># *********************
(PID.TID 0000.0001) > &CTRL_NML
(PID.TID 0000.0001) ># xx_theta_file      = 'xx_theta',
(PID.TID 0000.0001) ># xx_salt_file       = 'xx_salt',
(PID.TID 0000.0001) ># xx_tr1_file        = 'xx_tr1',
(PID.TID 0000.0001) ># xx_hflux_file      = 'xx_hflux',
(PID.TID 0000.0001) ># xx_sflux_file      = 'xx_sflux',
(PID.TID 0000.0001) ># xx_tauu_file       = 'xx_tauu',
(PID.TID 0000.0001) ># xx_tauv_file       = 'xx_tauv',
(PID.TID 0000.0001) ># xx_sst_file        = 'xx_sst',
(PID.TID 0000.0001) ># xx_sss_file        = 'xx_sss',
(PID.TID 0000.0001) ># xx_diffkr_file     = 'xx_diffkr',
(PID.TID 0000.0001) ># xx_kapgm_file      = 'xx_kapgm',
(PID.TID 0000.0001) >#xx_hfacc_file      = 'xx_hfacc',
(PID.TID 0000.0001) > xx_depth_file      = 'xx_depth',
(PID.TID 0000.0001) > /
(PID.TID 0000.0001) >#
(PID.TID 0000.0001) ># *********************
(PID.TID 0000.0001) ># names for ctrl_pack/unpack
(PID.TID 0000.0001) ># *********************
(PID.TID 0000.0001) > &CTRL_PACKNAMES
(PID.TID 0000.0001) > /
(PID.TID 0000.0001) >
(PID.TID 0000.0001) 
(PID.TID 0000.0001) CTRL_READPARMS: finished reading data.ctrl
(PID.TID 0000.0001) COST_READPARMS: opening data.cost
(PID.TID 0000.0001)  OPEN_COPY_DATA_FILE: opening file data.cost
(PID.TID 0000.0001) // =======================================================
(PID.TID 0000.0001) // Parameter file "data.cost"
(PID.TID 0000.0001) // =======================================================
(PID.TID 0000.0001) >#
(PID.TID 0000.0001) >#
(PID.TID 0000.0001) ># ******************
(PID.TID 0000.0001) ># ECCO cost function
(PID.TID 0000.0001) ># ******************
(PID.TID 0000.0001) > &COST_NML
(PID.TID 0000.0001) > mult_tracer  = 0.,
(PID.TID 0000.0001) > mult_test    = 1.,
(PID.TID 0000.0001) > mult_depth   = 1.,
(PID.TID 0000.0001) > /
(PID.TID 0000.0001) 
(PID.TID 0000.0001) COST_READPARMS: finished reading data.cost
(PID.TID 0000.0001) GRDCHK_READPARMS: opening data.grdchk
(PID.TID 0000.0001)  OPEN_COPY_DATA_FILE: opening file data.grdchk
(PID.TID 0000.0001) // =======================================================
(PID.TID 0000.0001) // Parameter file "data.grdchk"
(PID.TID 0000.0001) // =======================================================
(PID.TID 0000.0001) >
(PID.TID 0000.0001) ># *******************
(PID.TID 0000.0001) ># ECCO gradient check
(PID.TID 0000.0001) ># *******************
(PID.TID 0000.0001) > &GRDCHK_NML
(PID.TID 0000.0001) > grdchk_eps       = 1.d-04,
(PID.TID 0000.0001) > nbeg             = 1,
(PID.TID 0000.0001) > nstep            = 3,
(PID.TID 0000.0001) > nend             = 25,
(PID.TID 0000.0001) > grdchkvarindex   = 20,
(PID.TID 0000.0001) > /
(PID.TID 0000.0001) 
(PID.TID 0000.0001) GRDCHK_READPARMS: finished reading data.grdchk
(PID.TID 0000.0001) 
(PID.TID 0000.0001) // =======================================================
(PID.TID 0000.0001) // Gradient check configuration  >>> START <<<
(PID.TID 0000.0001) // =======================================================
(PID.TID 0000.0001) 
(PID.TID 0000.0001)   eps:                              0.100E-03
(PID.TID 0000.0001)   First location:                           1
(PID.TID 0000.0001)   Last location:                           25
(PID.TID 0000.0001)   Increment:                                3
(PID.TID 0000.0001) 
(PID.TID 0000.0001) // =======================================================
(PID.TID 0000.0001) // Gradient check configuration  >>> END <<<
(PID.TID 0000.0001) // =======================================================
(PID.TID 0000.0001) 
(PID.TID 0000.0001) SET_PARMS: done
(PID.TID 0000.0001) Enter INI_VERTICAL_GRID: setInterFDr=    T ; setCenterDr=    F
(PID.TID 0000.0001) %MON XC_max                       =   9.0000000000000E+05
(PID.TID 0000.0001) %MON XC_min                       =   1.0000000000000E+05
(PID.TID 0000.0001) %MON XC_mean                      =   5.0000000000000E+05
(PID.TID 0000.0001) %MON XC_sd                        =   2.8284271247462E+05
(PID.TID 0000.0001) %MON XG_max                       =   8.0000000000000E+05
(PID.TID 0000.0001) %MON XG_min                       =   0.0000000000000E+00
(PID.TID 0000.0001) %MON XG_mean                      =   4.0000000000000E+05
(PID.TID 0000.0001) %MON XG_sd                        =   2.8284271247462E+05
(PID.TID 0000.0001) %MON DXC_max                      =   2.0000000000000E+05
(PID.TID 0000.0001) %MON DXC_min                      =   2.0000000000000E+05
(PID.TID 0000.0001) %MON DXC_mean                     =   2.0000000000000E+05
(PID.TID 0000.0001) %MON DXC_sd                       =   0.0000000000000E+00
(PID.TID 0000.0001) %MON DXF_max                      =   2.0000000000000E+05
(PID.TID 0000.0001) %MON DXF_min                      =   2.0000000000000E+05
(PID.TID 0000.0001) %MON DXF_mean                     =   2.0000000000000E+05
(PID.TID 0000.0001) %MON DXF_sd                       =   0.0000000000000E+00
(PID.TID 0000.0001) %MON DXG_max                      =   2.0000000000000E+05
(PID.TID 0000.0001) %MON DXG_min                      =   2.0000000000000E+05
(PID.TID 0000.0001) %MON DXG_mean                     =   2.0000000000000E+05
(PID.TID 0000.0001) %MON DXG_sd                       =   0.0000000000000E+00
(PID.TID 0000.0001) %MON DXV_max                      =   2.0000000000000E+05
(PID.TID 0000.0001) %MON DXV_min                      =   2.0000000000000E+05
(PID.TID 0000.0001) %MON DXV_mean                     =   2.0000000000000E+05
(PID.TID 0000.0001) %MON DXV_sd                       =   0.0000000000000E+00
(PID.TID 0000.0001) %MON YC_max                       =   9.0000000000000E+05
(PID.TID 0000.0001) %MON YC_min                       =   1.0000000000000E+05
(PID.TID 0000.0001) %MON YC_mean                      =   5.0000000000000E+05
(PID.TID 0000.0001) %MON YC_sd                        =   2.8284271247462E+05
(PID.TID 0000.0001) %MON YG_max                       =   8.0000000000000E+05
(PID.TID 0000.0001) %MON YG_min                       =   0.0000000000000E+00
(PID.TID 0000.0001) %MON YG_mean                      =   4.0000000000000E+05
(PID.TID 0000.0001) %MON YG_sd                        =   2.8284271247462E+05
(PID.TID 0000.0001) %MON DYC_max                      =   2.0000000000000E+05
(PID.TID 0000.0001) %MON DYC_min                      =   2.0000000000000E+05
(PID.TID 0000.0001) %MON DYC_mean                     =   2.0000000000000E+05
(PID.TID 0000.0001) %MON DYC_sd                       =   0.0000000000000E+00
(PID.TID 0000.0001) %MON DYF_max                      =   2.0000000000000E+05
(PID.TID 0000.0001) %MON DYF_min                      =   2.0000000000000E+05
(PID.TID 0000.0001) %MON DYF_mean                     =   2.0000000000000E+05
(PID.TID 0000.0001) %MON DYF_sd                       =   0.0000000000000E+00
(PID.TID 0000.0001) %MON DYG_max                      =   2.0000000000000E+05
(PID.TID 0000.0001) %MON DYG_min                      =   2.0000000000000E+05
(PID.TID 0000.0001) %MON DYG_mean                     =   2.0000000000000E+05
(PID.TID 0000.0001) %MON DYG_sd                       =   0.0000000000000E+00
(PID.TID 0000.0001) %MON DYU_max                      =   2.0000000000000E+05
(PID.TID 0000.0001) %MON DYU_min                      =   2.0000000000000E+05
(PID.TID 0000.0001) %MON DYU_mean                     =   2.0000000000000E+05
(PID.TID 0000.0001) %MON DYU_sd                       =   0.0000000000000E+00
(PID.TID 0000.0001) %MON RA_max                       =   4.0000000000000E+10
(PID.TID 0000.0001) %MON RA_min                       =   4.0000000000000E+10
(PID.TID 0000.0001) %MON RA_mean                      =   4.0000000000000E+10
(PID.TID 0000.0001) %MON RA_sd                        =   0.0000000000000E+00
(PID.TID 0000.0001) %MON RAW_max                      =   4.0000000000000E+10
(PID.TID 0000.0001) %MON RAW_min                      =   4.0000000000000E+10
(PID.TID 0000.0001) %MON RAW_mean                     =   4.0000000000000E+10
(PID.TID 0000.0001) %MON RAW_sd                       =   0.0000000000000E+00
(PID.TID 0000.0001) %MON RAS_max                      =   4.0000000000000E+10
(PID.TID 0000.0001) %MON RAS_min                      =   4.0000000000000E+10
(PID.TID 0000.0001) %MON RAS_mean                     =   4.0000000000000E+10
(PID.TID 0000.0001) %MON RAS_sd                       =   0.0000000000000E+00
(PID.TID 0000.0001) %MON RAZ_max                      =   4.0000000000000E+10
(PID.TID 0000.0001) %MON RAZ_min                      =   4.0000000000000E+10
(PID.TID 0000.0001) %MON RAZ_mean                     =   4.0000000000000E+10
(PID.TID 0000.0001) %MON RAZ_sd                       =   0.0000000000000E+00
(PID.TID 0000.0001) %MON AngleCS_max                  =   1.0000000000000E+00
(PID.TID 0000.0001) %MON AngleCS_min                  =   1.0000000000000E+00
(PID.TID 0000.0001) %MON AngleCS_mean                 =   1.0000000000000E+00
(PID.TID 0000.0001) %MON AngleCS_sd                   =   0.0000000000000E+00
(PID.TID 0000.0001) %MON AngleSN_max                  =   0.0000000000000E+00
(PID.TID 0000.0001) %MON AngleSN_min                  =   0.0000000000000E+00
(PID.TID 0000.0001) %MON AngleSN_mean                 =   0.0000000000000E+00
(PID.TID 0000.0001) %MON AngleSN_sd                   =   0.0000000000000E+00
(PID.TID 0000.0001)  MDS_READ_FIELD: opening global file: noWalls.bigRidge
(PID.TID 0000.0001) // =======================================================
(PID.TID 0000.0001) // Field Model R_low (ini_masks_etc) at iteration          1
(PID.TID 0000.0001) // CMIN =         -5.000000000000000E+03
(PID.TID 0000.0001) // CMAX =         -2.000000000000000E+03
(PID.TID 0000.0001) // CINT =          1.111111111111111E+02
(PID.TID 0000.0001) // SYMBOLS (CMIN->CMAX): -abcdefghijklmnopqrstuvwxyz+
(PID.TID 0000.0001) //                  0.0: .
(PID.TID 0000.0001) // RANGE I (Lo:Hi:Step):(    -1:     7:     1)
(PID.TID 0000.0001) // RANGE J (Lo:Hi:Step):(     7:    -1:    -1)
(PID.TID 0000.0001) // RANGE K (Lo:Hi:Step):(   1:   1:   1)
(PID.TID 0000.0001) // =======================================================
(PID.TID 0000.0001) K =   1
(PID.TID 0000.0001) //
(PID.TID 0000.0001) // |--J--|101234567
(PID.TID 0000.0001) //      7 ----+----
(PID.TID 0000.0001) //      6 ----+----
(PID.TID 0000.0001) //      5 ----+----
(PID.TID 0000.0001) //      4 ----+----
(PID.TID 0000.0001) //      3 ----+----
(PID.TID 0000.0001) //      2 ----+----
(PID.TID 0000.0001) //      1 ----+----
(PID.TID 0000.0001) //      0 ----+----
(PID.TID 0000.0001) //     -1 ----+----
(PID.TID 0000.0001) // =======================================================
(PID.TID 0000.0001) // END OF FIELD                                          =
(PID.TID 0000.0001) // =======================================================
(PID.TID 0000.0001) 
(PID.TID 0000.0001) // =======================================================
(PID.TID 0000.0001) // Field Model Ro_surf (ini_masks_etc) at iteration          1
(PID.TID 0000.0001) // CMIN =          1.000000000000000E+32
(PID.TID 0000.0001) // CMAX =         -1.000000000000000E+32
(PID.TID 0000.0001) // CINT =          0.000000000000000E+00
(PID.TID 0000.0001) // SYMBOLS (CMIN->CMAX): -abcdefghijklmnopqrstuvwxyz+
(PID.TID 0000.0001) //                  0.0: .
(PID.TID 0000.0001) // RANGE I (Lo:Hi:Step):(    -1:     7:     1)
(PID.TID 0000.0001) // RANGE J (Lo:Hi:Step):(     7:    -1:    -1)
(PID.TID 0000.0001) // RANGE K (Lo:Hi:Step):(   1:   1:   1)
(PID.TID 0000.0001) // =======================================================
(PID.TID 0000.0001) // =======================================================
(PID.TID 0000.0001) // END OF FIELD                                          =
(PID.TID 0000.0001) // =======================================================
(PID.TID 0000.0001) 
(PID.TID 0000.0001) // =======================================================
(PID.TID 0000.0001) // Field hFacC at iteration          1
(PID.TID 0000.0001) // CMIN =          1.000000000000000E+00
(PID.TID 0000.0001) // CMAX =          1.000000000000000E+00
(PID.TID 0000.0001) // CINT =          0.000000000000000E+00
(PID.TID 0000.0001) // SYMBOLS (CMIN->CMAX): -abcdefghijklmnopqrstuvwxyz+
(PID.TID 0000.0001) //                  0.0: .
(PID.TID 0000.0001) // RANGE I (Lo:Hi:Step):(    -1:     7:     1)
(PID.TID 0000.0001) // RANGE J (Lo:Hi:Step):(     7:    -1:    -1)
(PID.TID 0000.0001) // RANGE K (Lo:Hi:Step):(   1:   1:   1)
(PID.TID 0000.0001) // =======================================================
(PID.TID 0000.0001) // =======================================================
(PID.TID 0000.0001) // END OF FIELD                                          =
(PID.TID 0000.0001) // =======================================================
(PID.TID 0000.0001) 
(PID.TID 0000.0001) // =======================================================
(PID.TID 0000.0001) // Field hFacW at iteration          1
(PID.TID 0000.0001) // CMIN =          1.000000000000000E+00
(PID.TID 0000.0001) // CMAX =          1.000000000000000E+00
(PID.TID 0000.0001) // CINT =          0.000000000000000E+00
(PID.TID 0000.0001) // SYMBOLS (CMIN->CMAX): -abcdefghijklmnopqrstuvwxyz+
(PID.TID 0000.0001) //                  0.0: .
(PID.TID 0000.0001) // RANGE I (Lo:Hi:Step):(    -1:     7:     1)
(PID.TID 0000.0001) // RANGE J (Lo:Hi:Step):(     7:    -1:    -1)
(PID.TID 0000.0001) // RANGE K (Lo:Hi:Step):(   1:   1:   1)
(PID.TID 0000.0001) // =======================================================
(PID.TID 0000.0001) // =======================================================
(PID.TID 0000.0001) // END OF FIELD                                          =
(PID.TID 0000.0001) // =======================================================
(PID.TID 0000.0001) 
(PID.TID 0000.0001) // =======================================================
(PID.TID 0000.0001) // Field hFacS at iteration          1
(PID.TID 0000.0001) // CMIN =          1.000000000000000E+00
(PID.TID 0000.0001) // CMAX =          1.000000000000000E+00
(PID.TID 0000.0001) // CINT =          0.000000000000000E+00
(PID.TID 0000.0001) // SYMBOLS (CMIN->CMAX): -abcdefghijklmnopqrstuvwxyz+
(PID.TID 0000.0001) //                  0.0: .
(PID.TID 0000.0001) // RANGE I (Lo:Hi:Step):(    -1:     7:     1)
(PID.TID 0000.0001) // RANGE J (Lo:Hi:Step):(     7:    -1:    -1)
(PID.TID 0000.0001) // RANGE K (Lo:Hi:Step):(   1:   1:   1)
(PID.TID 0000.0001) // =======================================================
(PID.TID 0000.0001) // =======================================================
(PID.TID 0000.0001) // END OF FIELD                                          =
(PID.TID 0000.0001) // =======================================================
(PID.TID 0000.0001) 
(PID.TID 0000.0001) GAD_INIT_FIXED: GAD_OlMinSize=  1  0  1
(PID.TID 0000.0001) 
(PID.TID 0000.0001) // ===================================
(PID.TID 0000.0001) // GAD parameters :
(PID.TID 0000.0001) // ===================================
(PID.TID 0000.0001) tempAdvScheme =   /* Temp. Horiz.Advection scheme selector */
(PID.TID 0000.0001)                       2
(PID.TID 0000.0001)     ;
(PID.TID 0000.0001) tempVertAdvScheme =   /* Temp. Vert. Advection scheme selector */
(PID.TID 0000.0001)                       2
(PID.TID 0000.0001)     ;
(PID.TID 0000.0001) tempMultiDimAdvec =   /* use Muti-Dim Advec method for Temp */
(PID.TID 0000.0001)                   F
(PID.TID 0000.0001)     ;
(PID.TID 0000.0001) tempSOM_Advection = /* use 2nd Order Moment Advection for Temp */
(PID.TID 0000.0001)                   F
(PID.TID 0000.0001)     ;
(PID.TID 0000.0001) AdamsBashforthGt = /* apply Adams-Bashforth extrapolation on Gt */
(PID.TID 0000.0001)                   T
(PID.TID 0000.0001)     ;
(PID.TID 0000.0001) AdamsBashforth_T = /* apply Adams-Bashforth extrapolation on Temp */
(PID.TID 0000.0001)                   F
(PID.TID 0000.0001)     ;
(PID.TID 0000.0001) saltAdvScheme =   /* Salt. Horiz.advection scheme selector */
(PID.TID 0000.0001)                       2
(PID.TID 0000.0001)     ;
(PID.TID 0000.0001) saltVertAdvScheme =   /* Salt. Vert. Advection scheme selector */
(PID.TID 0000.0001)                       2
(PID.TID 0000.0001)     ;
(PID.TID 0000.0001) saltMultiDimAdvec =   /* use Muti-Dim Advec method for Salt */
(PID.TID 0000.0001)                   F
(PID.TID 0000.0001)     ;
(PID.TID 0000.0001) saltSOM_Advection = /* use 2nd Order Moment Advection for Salt */
(PID.TID 0000.0001)                   F
(PID.TID 0000.0001)     ;
(PID.TID 0000.0001) AdamsBashforthGs = /* apply Adams-Bashforth extrapolation on Gs */
(PID.TID 0000.0001)                   T
(PID.TID 0000.0001)     ;
(PID.TID 0000.0001) AdamsBashforth_S = /* apply Adams-Bashforth extrapolation on Salt */
(PID.TID 0000.0001)                   F
(PID.TID 0000.0001)     ;
(PID.TID 0000.0001) // ===================================
(PID.TID 0000.0001) ctrl-wet 1:    nvarlength =           25
(PID.TID 0000.0001) ctrl-wet 2: surface wet C =           25
(PID.TID 0000.0001) ctrl-wet 3: surface wet W =           25
(PID.TID 0000.0001) ctrl-wet 4: surface wet S =           25
(PID.TID 0000.0001) ctrl-wet 4a:surface wet V =            0
(PID.TID 0000.0001) ctrl-wet 5: 3D wet points =          100
(PID.TID 0000.0001) ctrl-wet 6: no recs for i =     1           0
(PID.TID 0000.0001) ctrl-wet 6: no recs for i =     2           0
(PID.TID 0000.0001) ctrl-wet 6: no recs for i =     3           0
(PID.TID 0000.0001) ctrl-wet 6: no recs for i =     4           0
(PID.TID 0000.0001) ctrl-wet 6: no recs for i =     5           0
(PID.TID 0000.0001) ctrl-wet 6: no recs for i =     6           0
(PID.TID 0000.0001) ctrl-wet 6: no recs for i =     7           0
(PID.TID 0000.0001) ctrl-wet 6: no recs for i =     8           0
(PID.TID 0000.0001) ctrl-wet 6: no recs for i =     9           0
(PID.TID 0000.0001) ctrl-wet 6: no recs for i =    10           0
(PID.TID 0000.0001) ctrl-wet 6: no recs for i =    11           0
(PID.TID 0000.0001) ctrl-wet 6: no recs for i =    12           0
(PID.TID 0000.0001) ctrl-wet 6: no recs for i =    13           0
(PID.TID 0000.0001) ctrl-wet 6: no recs for i =    14           0
(PID.TID 0000.0001) ctrl-wet 6: no recs for i =    15           0
(PID.TID 0000.0001) ctrl-wet 6: no recs for i =    16           0
(PID.TID 0000.0001) ctrl-wet 6: no recs for i =    17           0
(PID.TID 0000.0001) ctrl-wet 6: no recs for i =    18           0
(PID.TID 0000.0001) ctrl-wet 6: no recs for i =    19           0
(PID.TID 0000.0001) ctrl-wet 6: no recs for i =    20           1
(PID.TID 0000.0001) ctrl-wet 6: no recs for i =    21           0
(PID.TID 0000.0001) ctrl-wet 6: no recs for i =    22           0
(PID.TID 0000.0001) ctrl-wet 6: no recs for i =    23           0
(PID.TID 0000.0001) ctrl-wet 6: no recs for i =    24           0
(PID.TID 0000.0001) ctrl-wet 6: no recs for i =    25           0
(PID.TID 0000.0001) ctrl-wet 6: no recs for i =    26           0
(PID.TID 0000.0001) ctrl-wet 6: no recs for i =    27           0
(PID.TID 0000.0001) ctrl-wet 6: no recs for i =    28           0
(PID.TID 0000.0001) ctrl-wet 6: no recs for i =    29           0
(PID.TID 0000.0001) ctrl-wet 6: no recs for i =    30           0
(PID.TID 0000.0001) ctrl-wet 6: no recs for i =    31           0
(PID.TID 0000.0001) ctrl-wet 6: no recs for i =    32           0
(PID.TID 0000.0001) ctrl-wet 6: no recs for i =    33           0
(PID.TID 0000.0001) ctrl-wet 6: no recs for i =    34           0
(PID.TID 0000.0001) ctrl-wet 6: no recs for i =    35           0
(PID.TID 0000.0001) ctrl-wet 6: no recs for i =    36           0
(PID.TID 0000.0001) ctrl-wet 6: no recs for i =    37           0
(PID.TID 0000.0001) ctrl-wet 6: no recs for i =    38           0
(PID.TID 0000.0001) ctrl-wet 6: no recs for i =    39           0
(PID.TID 0000.0001) ctrl-wet 6: no recs for i =    40           0
(PID.TID 0000.0001) ctrl-wet 6: no recs for i =    41           0
(PID.TID 0000.0001) ctrl-wet 6: no recs for i =    42           0
(PID.TID 0000.0001) ctrl-wet 6: no recs for i =    43           0
(PID.TID 0000.0001) ctrl-wet 6: no recs for i =    44           0
(PID.TID 0000.0001) ctrl-wet 6: no recs for i =    45           0
(PID.TID 0000.0001) ctrl-wet 6: no recs for i =    46           0
(PID.TID 0000.0001) ctrl-wet 6: no recs for i =    47           0
(PID.TID 0000.0001) ctrl-wet 6: no recs for i =    48           0
(PID.TID 0000.0001) ctrl-wet 6: no recs for i =    49           0
(PID.TID 0000.0001) ctrl-wet 6: no recs for i =    50           0
(PID.TID 0000.0001) ctrl-wet 6: no recs for i =    51           0
(PID.TID 0000.0001) ctrl-wet 6: no recs for i =    52           0
(PID.TID 0000.0001) ctrl-wet 6: no recs for i =    53           0
(PID.TID 0000.0001) ctrl-wet 6: no recs for i =    54           0
(PID.TID 0000.0001) ctrl-wet 6: no recs for i =    55           0
(PID.TID 0000.0001) ctrl-wet 6: no recs for i =    56           0
(PID.TID 0000.0001) ctrl-wet 6: no recs for i =    57           0
(PID.TID 0000.0001) ctrl-wet 6: no recs for i =    58           0
(PID.TID 0000.0001) ctrl-wet 6: no recs for i =    59           0
(PID.TID 0000.0001) ctrl-wet 6: no recs for i =    60           0
(PID.TID 0000.0001) ctrl-wet 7: flux           200
(PID.TID 0000.0001) ctrl-wet 8: atmos          200
(PID.TID 0000.0001) ctrl-wet -------------------------------------------------
(PID.TID 0000.0001) ctrl-wet 13: global nvarlength for Nr =    4          25
(PID.TID 0000.0001) ctrl-wet -------------------------------------------------
(PID.TID 0000.0001) ctrl-wet 14: global nWet C/S/W/V k=    1          25          25          25           0
(PID.TID 0000.0001) ctrl-wet 14: global nWet C/S/W/V k=    2          25          25          25           0
(PID.TID 0000.0001) ctrl-wet 14: global nWet C/S/W/V k=    3          25          25          25           0
(PID.TID 0000.0001) ctrl-wet 14: global nWet C/S/W/V k=    4          25          25          25           0
(PID.TID 0000.0001) ctrl-wet -------------------------------------------------
(PID.TID 0000.0001) ctrl-wet -------------------------------------------------
(PID.TID 0000.0001) ctrl-wet -------------------------------------------------
(PID.TID 0000.0001) ctrl_init: no. of control variables:            1
(PID.TID 0000.0001) ctrl_init: control vector length:              25
(PID.TID 0000.0001) %MON fCori_max                    =  -1.0735540000000E-04
(PID.TID 0000.0001) %MON fCori_min                    =  -1.1783060000000E-04
(PID.TID 0000.0001) %MON fCori_mean                   =  -1.1259300000000E-04
(PID.TID 0000.0001) %MON fCori_sd                     =   3.7035424771427E-06
(PID.TID 0000.0001) %MON fCoriG_max                   =  -1.0866480000000E-04
(PID.TID 0000.0001) %MON fCoriG_min                   =  -1.1914000000000E-04
(PID.TID 0000.0001) %MON fCoriG_mean                  =  -1.1390240000000E-04
(PID.TID 0000.0001) %MON fCoriG_sd                    =   3.7035424771427E-06
(PID.TID 0000.0001) %MON fCoriCos_max                 =   0.0000000000000E+00
(PID.TID 0000.0001) %MON fCoriCos_min                 =   0.0000000000000E+00
(PID.TID 0000.0001) %MON fCoriCos_mean                =   0.0000000000000E+00
(PID.TID 0000.0001) %MON fCoriCos_sd                  =   0.0000000000000E+00
(PID.TID 0000.0001) INI_CG2D: CG2D normalisation factor =  1.9999999999999996E-04
(PID.TID 0000.0001) 
(PID.TID 0000.0001) // =======================================================
(PID.TID 0000.0001) // Model configuration
(PID.TID 0000.0001) // =======================================================
(PID.TID 0000.0001) //
(PID.TID 0000.0001) // "Physical" paramters ( PARM01 in namelist )
(PID.TID 0000.0001) //
(PID.TID 0000.0001) buoyancyRelation = /* Type of relation to get Buoyancy */
(PID.TID 0000.0001)               'OCEANIC'
(PID.TID 0000.0001)     ;
(PID.TID 0000.0001) fluidIsAir   =  /* fluid major constituent is Air */
(PID.TID 0000.0001)                   F
(PID.TID 0000.0001)     ;
(PID.TID 0000.0001) fluidIsWater =  /* fluid major constituent is Water */
(PID.TID 0000.0001)                   T
(PID.TID 0000.0001)     ;
(PID.TID 0000.0001) usingPCoords =  /* use p (or p*) vertical coordinate */
(PID.TID 0000.0001)                   F
(PID.TID 0000.0001)     ;
(PID.TID 0000.0001) usingZCoords =  /* use z (or z*) vertical coordinate */
(PID.TID 0000.0001)                   T
(PID.TID 0000.0001)     ;
(PID.TID 0000.0001) tRef =   /* Reference temperature profile ( oC or K ) */
(PID.TID 0000.0001)     4 @  4.000000000000000E+00              /* K =  1:  4 */
(PID.TID 0000.0001)     ;
(PID.TID 0000.0001) sRef =   /* Reference salinity profile ( psu ) */
(PID.TID 0000.0001)     4 @  3.500000000000000E+01              /* K =  1:  4 */
(PID.TID 0000.0001)     ;
(PID.TID 0000.0001) viscAh  =   /* Lateral eddy viscosity ( m^2/s ) */
(PID.TID 0000.0001)                 1.000000000000000E+05
(PID.TID 0000.0001)     ;
(PID.TID 0000.0001) viscAhMax = /* Maximum lateral eddy viscosity ( m^2/s ) */
(PID.TID 0000.0001)                 1.000000000000000E+21
(PID.TID 0000.0001)     ;
(PID.TID 0000.0001) viscAhGrid = /* Grid dependent lateral eddy viscosity ( non-dim. ) */
(PID.TID 0000.0001)                 0.000000000000000E+00
(PID.TID 0000.0001)     ;
(PID.TID 0000.0001) useFullLeith = /* Use Full Form of Leith Viscosity on/off flag*/
(PID.TID 0000.0001)                   F
(PID.TID 0000.0001)     ;
(PID.TID 0000.0001) useStrainTensionVisc= /* Use StrainTension Form of Viscous Operator flag*/
(PID.TID 0000.0001)                   F
(PID.TID 0000.0001)     ;
(PID.TID 0000.0001) useAreaViscLength = /* Use area for visc length instead of geom. mean*/
(PID.TID 0000.0001)                   F
(PID.TID 0000.0001)     ;
(PID.TID 0000.0001) viscC2leith = /* Leith harmonic visc. factor (on grad(vort),non-dim.) */
(PID.TID 0000.0001)                 0.000000000000000E+00
(PID.TID 0000.0001)     ;
(PID.TID 0000.0001) viscC2leithD = /* Leith harmonic viscosity factor (on grad(div),non-dim.)*/
(PID.TID 0000.0001)                 0.000000000000000E+00
(PID.TID 0000.0001)     ;
(PID.TID 0000.0001) viscC2smag = /* Smagorinsky harmonic viscosity factor (non-dim.) */
(PID.TID 0000.0001)                 0.000000000000000E+00
(PID.TID 0000.0001)     ;
(PID.TID 0000.0001) viscA4  =   /* Lateral biharmonic viscosity ( m^4/s ) */
(PID.TID 0000.0001)                 0.000000000000000E+00
(PID.TID 0000.0001)     ;
(PID.TID 0000.0001) viscA4Max = /* Maximum biharmonic viscosity ( m^2/s ) */
(PID.TID 0000.0001)                 1.000000000000000E+21
(PID.TID 0000.0001)     ;
(PID.TID 0000.0001) viscA4Grid = /* Grid dependent biharmonic viscosity ( non-dim. ) */
(PID.TID 0000.0001)                 0.000000000000000E+00
(PID.TID 0000.0001)     ;
(PID.TID 0000.0001) viscC4leith = /* Leith biharm viscosity factor (on grad(vort), non-dim.)*/
(PID.TID 0000.0001)                 0.000000000000000E+00
(PID.TID 0000.0001)     ;
(PID.TID 0000.0001) viscC4leithD = /* Leith biharm viscosity factor (on grad(div), non-dim.) */
(PID.TID 0000.0001)                 0.000000000000000E+00
(PID.TID 0000.0001)     ;
(PID.TID 0000.0001) viscC4Smag = /* Smagorinsky biharm viscosity factor (non-dim) */
(PID.TID 0000.0001)                 0.000000000000000E+00
(PID.TID 0000.0001)     ;
(PID.TID 0000.0001) no_slip_sides =  /* Viscous BCs: No-slip sides */
(PID.TID 0000.0001)                   F
(PID.TID 0000.0001)     ;
(PID.TID 0000.0001) sideDragFactor = /* side-drag scaling factor (non-dim) */
(PID.TID 0000.0001)                 2.000000000000000E+00
(PID.TID 0000.0001)     ;
(PID.TID 0000.0001) viscArNr = /* vertical profile of vertical viscosity ( m^2/s )*/
(PID.TID 0000.0001)     4 @  1.000000000000000E-01              /* K =  1:  4 */
(PID.TID 0000.0001)     ;
(PID.TID 0000.0001) no_slip_bottom =  /* Viscous BCs: No-slip bottom */
(PID.TID 0000.0001)                   T
(PID.TID 0000.0001)     ;
(PID.TID 0000.0001) bottomDragLinear = /* linear bottom-drag coefficient ( m/s ) */
(PID.TID 0000.0001)                 0.000000000000000E+00
(PID.TID 0000.0001)     ;
(PID.TID 0000.0001) bottomDragQuadratic = /* quadratic bottom-drag coefficient (-) */
(PID.TID 0000.0001)                 0.000000000000000E+00
(PID.TID 0000.0001)     ;
(PID.TID 0000.0001) diffKhT =   /* Laplacian diffusion of heat laterally ( m^2/s ) */
(PID.TID 0000.0001)                 4.000000000000000E+02
(PID.TID 0000.0001)     ;
(PID.TID 0000.0001) diffK4T =   /* Biharmonic diffusion of heat laterally ( m^4/s ) */
(PID.TID 0000.0001)                 0.000000000000000E+00
(PID.TID 0000.0001)     ;
(PID.TID 0000.0001) diffKhS =   /* Laplacian diffusion of salt laterally ( m^2/s ) */
(PID.TID 0000.0001)                 0.000000000000000E+00
(PID.TID 0000.0001)     ;
(PID.TID 0000.0001) diffK4S =   /* Biharmonic diffusion of salt laterally ( m^4/s ) */
(PID.TID 0000.0001)                 0.000000000000000E+00
(PID.TID 0000.0001)     ;
(PID.TID 0000.0001) diffKrNrT = /* vertical profile of vertical diffusion of Temp ( m^2/s )*/
(PID.TID 0000.0001)     4 @  1.000000000000000E-04              /* K =  1:  4 */
(PID.TID 0000.0001)     ;
(PID.TID 0000.0001) diffKrNrS = /* vertical profile of vertical diffusion of Salt ( m^2/s )*/
(PID.TID 0000.0001)     4 @  3.000000000000000E-05              /* K =  1:  4 */
(PID.TID 0000.0001)     ;
(PID.TID 0000.0001) diffKrBL79surf = /* Surface diffusion for Bryan and Lewis 79 ( m^2/s ) */
(PID.TID 0000.0001)                 0.000000000000000E+00
(PID.TID 0000.0001)     ;
(PID.TID 0000.0001) diffKrBL79deep = /* Deep diffusion for Bryan and Lewis 1979 ( m^2/s ) */
(PID.TID 0000.0001)                 0.000000000000000E+00
(PID.TID 0000.0001)     ;
(PID.TID 0000.0001) diffKrBL79scl = /* Depth scale for Bryan and Lewis 1979 ( m ) */
(PID.TID 0000.0001)                 2.000000000000000E+02
(PID.TID 0000.0001)     ;
(PID.TID 0000.0001) diffKrBL79Ho = /* Turning depth for Bryan and Lewis 1979 ( m ) */
(PID.TID 0000.0001)                -2.000000000000000E+03
(PID.TID 0000.0001)     ;
(PID.TID 0000.0001) ivdc_kappa = /* Implicit Vertical Diffusivity for Convection ( m^2/s) */
(PID.TID 0000.0001)                 0.000000000000000E+00
(PID.TID 0000.0001)     ;
(PID.TID 0000.0001) hMixCriteria=  /* Criteria for mixed-layer diagnostic */
(PID.TID 0000.0001)                -8.000000000000000E-01
(PID.TID 0000.0001)     ;
(PID.TID 0000.0001) dRhoSmall =  /* Parameter for mixed-layer diagnostic */
(PID.TID 0000.0001)                 1.000000000000000E-06
(PID.TID 0000.0001)     ;
(PID.TID 0000.0001) hMixSmooth=  /* Smoothing parameter for mixed-layer diagnostic */
(PID.TID 0000.0001)                 0.000000000000000E+00
(PID.TID 0000.0001)     ;
(PID.TID 0000.0001) eosType =  /* Type of Equation of State */
(PID.TID 0000.0001)               'LINEAR'
(PID.TID 0000.0001)     ;
(PID.TID 0000.0001) tAlpha =   /* Linear EOS thermal expansion coefficient ( 1/oC ) */
(PID.TID 0000.0001)                 2.000000000000000E-04
(PID.TID 0000.0001)     ;
(PID.TID 0000.0001) sBeta =   /* Linear EOS haline contraction coefficient ( 1/psu ) */
(PID.TID 0000.0001)                 0.000000000000000E+00
(PID.TID 0000.0001)     ;
(PID.TID 0000.0001) rhonil =   /* Reference density ( kg/m^3 ) */
(PID.TID 0000.0001)                 9.998000000000000E+02
(PID.TID 0000.0001)     ;
(PID.TID 0000.0001) rhoConst =   /* Reference density ( kg/m^3 ) */
(PID.TID 0000.0001)                 9.998000000000000E+02
(PID.TID 0000.0001)     ;
(PID.TID 0000.0001) rhoFacC = /* normalized Reference density @ cell-Center (-) */
(PID.TID 0000.0001)     4 @  1.000000000000000E+00              /* K =  1:  4 */
(PID.TID 0000.0001)     ;
(PID.TID 0000.0001) rhoFacF = /* normalized Reference density @ W-Interface (-) */
(PID.TID 0000.0001)     5 @  1.000000000000000E+00              /* K =  1:  5 */
(PID.TID 0000.0001)     ;
(PID.TID 0000.0001) rhoConstFresh =   /* Reference density ( kg/m^3 ) */
(PID.TID 0000.0001)                 9.998000000000000E+02
(PID.TID 0000.0001)     ;
(PID.TID 0000.0001) gravity =   /* Gravitational acceleration ( m/s^2 ) */
(PID.TID 0000.0001)                 9.810000000000000E+00
(PID.TID 0000.0001)     ;
(PID.TID 0000.0001) gBaro =   /* Barotropic gravity ( m/s^2 ) */
(PID.TID 0000.0001)                 9.810000000000000E+00
(PID.TID 0000.0001)     ;
(PID.TID 0000.0001) rotationPeriod =   /* Rotation Period ( s ) */
(PID.TID 0000.0001)                 8.616400000000000E+04
(PID.TID 0000.0001)     ;
(PID.TID 0000.0001) omega =   /* Angular velocity ( rad/s ) */
(PID.TID 0000.0001)                 7.292123516990375E-05
(PID.TID 0000.0001)     ;
(PID.TID 0000.0001) f0 =   /* Reference coriolis parameter ( 1/s ) */
(PID.TID 0000.0001)                -1.191400000000000E-04
(PID.TID 0000.0001)     ;
(PID.TID 0000.0001) beta =   /* Beta ( 1/(m.s) ) */
(PID.TID 0000.0001)                 1.309400000000000E-11
(PID.TID 0000.0001)     ;
(PID.TID 0000.0001) fPrime =   /* Second coriolis parameter ( 1/s ) */
(PID.TID 0000.0001)                 0.000000000000000E+00
(PID.TID 0000.0001)     ;
(PID.TID 0000.0001) rigidLid =   /* Rigid lid on/off flag */
(PID.TID 0000.0001)                   F
(PID.TID 0000.0001)     ;
(PID.TID 0000.0001) implicitFreeSurface =   /* Implicit free surface on/off flag */
(PID.TID 0000.0001)                   T
(PID.TID 0000.0001)     ;
(PID.TID 0000.0001) freeSurfFac =   /* Implicit free surface factor */
(PID.TID 0000.0001)                 1.000000000000000E+00
(PID.TID 0000.0001)     ;
(PID.TID 0000.0001) implicSurfPress =  /* Surface Pressure implicit factor (0-1)*/
(PID.TID 0000.0001)                 1.000000000000000E+00
(PID.TID 0000.0001)     ;
(PID.TID 0000.0001) implicDiv2Dflow =  /* Barot. Flow Div. implicit factor (0-1)*/
(PID.TID 0000.0001)                 1.000000000000000E+00
(PID.TID 0000.0001)     ;
(PID.TID 0000.0001) exactConserv =  /* Exact Volume Conservation on/off flag*/
(PID.TID 0000.0001)                   F
(PID.TID 0000.0001)     ;
(PID.TID 0000.0001) linFSConserveTr = /* Tracer correction for Lin Free Surface on/off flag*/
(PID.TID 0000.0001)                   F
(PID.TID 0000.0001)     ;
(PID.TID 0000.0001) uniformLin_PhiSurf = /* use uniform Bo_surf on/off flag*/
(PID.TID 0000.0001)                   T
(PID.TID 0000.0001)     ;
(PID.TID 0000.0001) hFacMin =   /* minimum partial cell factor (hFac) */
(PID.TID 0000.0001)                 5.000000000000000E-02
(PID.TID 0000.0001)     ;
(PID.TID 0000.0001) hFacMinDr = /* minimum partial cell thickness ( m) */
(PID.TID 0000.0001)                 5.000000000000000E-02
(PID.TID 0000.0001)     ;
(PID.TID 0000.0001) nonlinFreeSurf = /* Non-linear Free Surf. options (-1,0,1,2,3)*/
(PID.TID 0000.0001)                       0
(PID.TID 0000.0001)      -1,0= Off ; 1,2,3= On, 2=+rescale gU,gV, 3=+update cg2d solv.
(PID.TID 0000.0001)     ;
(PID.TID 0000.0001) hFacInf =   /* lower threshold for hFac (nonlinFreeSurf only)*/
(PID.TID 0000.0001)                 2.000000000000000E-01
(PID.TID 0000.0001)     ;
(PID.TID 0000.0001) hFacSup =   /* upper threshold for hFac (nonlinFreeSurf only)*/
(PID.TID 0000.0001)                 2.000000000000000E+00
(PID.TID 0000.0001)     ;
(PID.TID 0000.0001) select_rStar = /* r* Vertical coord. options (=0 r coord.; >0 uses r*)*/
(PID.TID 0000.0001)                       0
(PID.TID 0000.0001)     ;
(PID.TID 0000.0001) selectAddFluid = /* option for mass source/sink of fluid (=0: off) */
(PID.TID 0000.0001)                       0
(PID.TID 0000.0001)     ;
(PID.TID 0000.0001) useRealFreshWaterFlux = /* Real Fresh Water Flux on/off flag*/
(PID.TID 0000.0001)                   F
(PID.TID 0000.0001)     ;
(PID.TID 0000.0001) temp_EvPrRn = /* Temp. of Evap/Prec/R (UNSET=use local T)(oC)*/
(PID.TID 0000.0001)                 1.234567000000000E+05
(PID.TID 0000.0001)     ;
(PID.TID 0000.0001) salt_EvPrRn = /* Salin. of Evap/Prec/R (UNSET=use local S)(psu)*/
(PID.TID 0000.0001)                 0.000000000000000E+00
(PID.TID 0000.0001)     ;
(PID.TID 0000.0001) temp_addMass = /* Temp. of addMass array (UNSET=use local T)(oC)*/
(PID.TID 0000.0001)                 1.234567000000000E+05
(PID.TID 0000.0001)     ;
(PID.TID 0000.0001) salt_addMass = /* Salin. of addMass array (UNSET=use local S)(psu)*/
(PID.TID 0000.0001)                 0.000000000000000E+00
(PID.TID 0000.0001)     ;
(PID.TID 0000.0001) convertFW2Salt = /* convert F.W. Flux to Salt Flux (-1=use local S)(psu)*/
(PID.TID 0000.0001)                 3.500000000000000E+01
(PID.TID 0000.0001)     ;
(PID.TID 0000.0001) use3Dsolver = /* use 3-D pressure solver on/off flag */
(PID.TID 0000.0001)                   F
(PID.TID 0000.0001)     ;
(PID.TID 0000.0001) nonHydrostatic =  /* Non-Hydrostatic on/off flag */
(PID.TID 0000.0001)                   F
(PID.TID 0000.0001)     ;
(PID.TID 0000.0001) nh_Am2 = /* Non-Hydrostatic terms scaling factor */
(PID.TID 0000.0001)                 1.000000000000000E+00
(PID.TID 0000.0001)     ;
(PID.TID 0000.0001) implicitNHPress = /* Non-Hyd Pressure implicit factor (0-1)*/
(PID.TID 0000.0001)                 1.000000000000000E+00
(PID.TID 0000.0001)     ;
(PID.TID 0000.0001) selectNHfreeSurf = /* Non-Hyd (free-)Surface option */
(PID.TID 0000.0001)                       0
(PID.TID 0000.0001)     ;
(PID.TID 0000.0001) quasiHydrostatic = /* Quasi-Hydrostatic on/off flag */
(PID.TID 0000.0001)                   F
(PID.TID 0000.0001)     ;
(PID.TID 0000.0001) momStepping =  /* Momentum equation on/off flag */
(PID.TID 0000.0001)                   T
(PID.TID 0000.0001)     ;
(PID.TID 0000.0001) vectorInvariantMomentum= /* Vector-Invariant Momentum on/off */
(PID.TID 0000.0001)                   F
(PID.TID 0000.0001)     ;
(PID.TID 0000.0001) momAdvection =  /* Momentum advection on/off flag */
(PID.TID 0000.0001)                   T
(PID.TID 0000.0001)     ;
(PID.TID 0000.0001) momViscosity =  /* Momentum viscosity on/off flag */
(PID.TID 0000.0001)                   T
(PID.TID 0000.0001)     ;
(PID.TID 0000.0001) momImplVertAdv= /* Momentum implicit vert. advection on/off*/
(PID.TID 0000.0001)                   F
(PID.TID 0000.0001)     ;
(PID.TID 0000.0001) implicitViscosity = /* Implicit viscosity on/off flag */
(PID.TID 0000.0001)                   F
(PID.TID 0000.0001)     ;
(PID.TID 0000.0001) metricTerms =  /* metric-Terms on/off flag */
(PID.TID 0000.0001)                   F
(PID.TID 0000.0001)     ;
(PID.TID 0000.0001) useNHMTerms = /* Non-Hydrostatic Metric-Terms on/off */
(PID.TID 0000.0001)                   F
(PID.TID 0000.0001)     ;
(PID.TID 0000.0001) selectCoriMap = /* Coriolis Map options (0,1,2,3)*/
(PID.TID 0000.0001)                       1
(PID.TID 0000.0001)     0= f-Plane ; 1= Beta-Plane ; 2= Spherical ; 3= read from file
(PID.TID 0000.0001)     ;
(PID.TID 0000.0001) use3dCoriolis = /* 3-D Coriolis on/off flag */
(PID.TID 0000.0001)                   F
(PID.TID 0000.0001)     ;
(PID.TID 0000.0001) useCoriolis =  /* Coriolis on/off flag */
(PID.TID 0000.0001)                   T
(PID.TID 0000.0001)     ;
(PID.TID 0000.0001) useCDscheme =  /* CD scheme on/off flag */
(PID.TID 0000.0001)                   F
(PID.TID 0000.0001)     ;
(PID.TID 0000.0001) useJamartWetPoints= /* Coriolis WetPoints method flag */
(PID.TID 0000.0001)                   F
(PID.TID 0000.0001)     ;
(PID.TID 0000.0001) useJamartMomAdv= /* V.I. Non-linear terms Jamart flag */
(PID.TID 0000.0001)                   F
(PID.TID 0000.0001)     ;
(PID.TID 0000.0001) useAbsVorticity= /* Work with f+zeta in Coriolis */
(PID.TID 0000.0001)                   F
(PID.TID 0000.0001)     ;
(PID.TID 0000.0001) selectVortScheme= /* Scheme selector for Vorticity-Term */
(PID.TID 0000.0001)               123456789
(PID.TID 0000.0001)    = 0 : enstrophy (Shallow-Water Eq.) conserving scheme by Sadourny, JAS 75
(PID.TID 0000.0001)    = 1 : same as 0 with modified hFac
(PID.TID 0000.0001)    = 2 : energy conserving scheme (used by Sadourny in JAS 75 paper)
(PID.TID 0000.0001)    = 3 : energy (general) and enstrophy (2D, nonDiv.) conserving scheme
(PID.TID 0000.0001)          from Sadourny (Burridge & Haseler, ECMWF Rep.4, 1977)
(PID.TID 0000.0001)     ;
(PID.TID 0000.0001) upwindVorticity= /* Upwind bias vorticity flag */
(PID.TID 0000.0001)                   F
(PID.TID 0000.0001)     ;
(PID.TID 0000.0001) highOrderVorticity= /* High order interp. of vort. flag */
(PID.TID 0000.0001)                   F
(PID.TID 0000.0001)     ;
(PID.TID 0000.0001) upwindShear= /* Upwind vertical Shear advection flag */
(PID.TID 0000.0001)                   F
(PID.TID 0000.0001)     ;
(PID.TID 0000.0001) selectKEscheme= /* Kinetic Energy scheme selector */
(PID.TID 0000.0001)                       0
(PID.TID 0000.0001)     ;
(PID.TID 0000.0001) momForcing =  /* Momentum forcing on/off flag */
(PID.TID 0000.0001)                   T
(PID.TID 0000.0001)     ;
(PID.TID 0000.0001) momPressureForcing =  /* Momentum pressure term on/off flag */
(PID.TID 0000.0001)                   T
(PID.TID 0000.0001)     ;
(PID.TID 0000.0001) implicitIntGravWave= /* Implicit Internal Gravity Wave flag */
(PID.TID 0000.0001)                   F
(PID.TID 0000.0001)     ;
(PID.TID 0000.0001) staggerTimeStep =   /* Stagger time stepping on/off flag */
(PID.TID 0000.0001)                   F
(PID.TID 0000.0001)     ;
(PID.TID 0000.0001) multiDimAdvection =   /* enable/disable Multi-Dim Advection */
(PID.TID 0000.0001)                   T
(PID.TID 0000.0001)     ;
(PID.TID 0000.0001) useMultiDimAdvec =   /* Multi-Dim Advection is/is-not used */
(PID.TID 0000.0001)                   F
(PID.TID 0000.0001)     ;
(PID.TID 0000.0001) implicitDiffusion = /* Implicit Diffusion on/off flag */
(PID.TID 0000.0001)                   F
(PID.TID 0000.0001)     ;
(PID.TID 0000.0001) tempStepping =  /* Temperature equation on/off flag */
(PID.TID 0000.0001)                   T
(PID.TID 0000.0001)     ;
(PID.TID 0000.0001) tempAdvection=  /* Temperature advection on/off flag */
(PID.TID 0000.0001)                   T
(PID.TID 0000.0001)     ;
(PID.TID 0000.0001) tempImplVertAdv = /* Temp. implicit vert. advection on/off */
(PID.TID 0000.0001)                   F
(PID.TID 0000.0001)     ;
(PID.TID 0000.0001) tempForcing  =  /* Temperature forcing on/off flag */
(PID.TID 0000.0001)                   T
(PID.TID 0000.0001)     ;
(PID.TID 0000.0001) tempIsActiveTr = /* Temp. is a dynamically Active Tracer */
(PID.TID 0000.0001)                   T
(PID.TID 0000.0001)     ;
(PID.TID 0000.0001) saltStepping =  /* Salinity equation on/off flag */
(PID.TID 0000.0001)                   T
(PID.TID 0000.0001)     ;
(PID.TID 0000.0001) saltAdvection=  /* Salinity advection on/off flag */
(PID.TID 0000.0001)                   T
(PID.TID 0000.0001)     ;
(PID.TID 0000.0001) saltImplVertAdv = /* Sali. implicit vert. advection on/off */
(PID.TID 0000.0001)                   F
(PID.TID 0000.0001)     ;
(PID.TID 0000.0001) saltForcing  =  /* Salinity forcing on/off flag */
(PID.TID 0000.0001)                   T
(PID.TID 0000.0001)     ;
(PID.TID 0000.0001) saltIsActiveTr = /* Salt  is a dynamically Active Tracer */
(PID.TID 0000.0001)                   F
(PID.TID 0000.0001)     ;
(PID.TID 0000.0001)  readBinaryPrec = /* Precision used for reading binary files */
(PID.TID 0000.0001)                      64
(PID.TID 0000.0001)     ;
(PID.TID 0000.0001) writeBinaryPrec = /* Precision used for writing binary files */
(PID.TID 0000.0001)                      64
(PID.TID 0000.0001)     ;
(PID.TID 0000.0001)  globalFiles = /* write "global" (=not per tile) files */
(PID.TID 0000.0001)                   F
(PID.TID 0000.0001)     ;
(PID.TID 0000.0001)  useSingleCpuIO = /* only master MPI process does I/O */
(PID.TID 0000.0001)                   F
(PID.TID 0000.0001)     ;
(PID.TID 0000.0001)  debugMode  =  /* Debug Mode on/off flag */
(PID.TID 0000.0001)                   F
(PID.TID 0000.0001)     ;
(PID.TID 0000.0001)    debLevA  =  /* 1rst level of debugging */
(PID.TID 0000.0001)                       1
(PID.TID 0000.0001)     ;
(PID.TID 0000.0001)    debLevB  =  /* 2nd  level of debugging */
(PID.TID 0000.0001)                       2
(PID.TID 0000.0001)     ;
(PID.TID 0000.0001)  debugLevel =  /* select debugging level */
(PID.TID 0000.0001)                       1
(PID.TID 0000.0001)     ;
(PID.TID 0000.0001) //
(PID.TID 0000.0001) // Elliptic solver(s) paramters ( PARM02 in namelist )
(PID.TID 0000.0001) //
(PID.TID 0000.0001) cg2dMaxIters =   /* Upper limit on 2d con. grad iterations  */
(PID.TID 0000.0001)                     100
(PID.TID 0000.0001)     ;
(PID.TID 0000.0001) cg2dChkResFreq =   /* 2d con. grad convergence test frequency */
(PID.TID 0000.0001)                       1
(PID.TID 0000.0001)     ;
(PID.TID 0000.0001) cg2dTargetResidual =   /* 2d con. grad target residual  */
(PID.TID 0000.0001)                 1.000000000000000E-13
(PID.TID 0000.0001)     ;
(PID.TID 0000.0001) cg2dTargetResWunit =   /* CG2d target residual [W units] */
(PID.TID 0000.0001)                -1.000000000000000E+00
(PID.TID 0000.0001)     ;
(PID.TID 0000.0001) cg2dPreCondFreq =   /* Freq. for updating cg2d preconditioner */
(PID.TID 0000.0001)                       1
(PID.TID 0000.0001)     ;
(PID.TID 0000.0001) useSRCGSolver =  /* use single reduction CG solver(s) */
(PID.TID 0000.0001)                   F
(PID.TID 0000.0001)     ;
(PID.TID 0000.0001) //
(PID.TID 0000.0001) // Time stepping paramters ( PARM03 in namelist )
(PID.TID 0000.0001) //
(PID.TID 0000.0001) deltaTmom =   /* Momentum equation timestep ( s ) */
(PID.TID 0000.0001)                 3.600000000000000E+03
(PID.TID 0000.0001)     ;
(PID.TID 0000.0001) deltaTfreesurf = /* FreeSurface equation timestep ( s ) */
(PID.TID 0000.0001)                 3.600000000000000E+03
(PID.TID 0000.0001)     ;
(PID.TID 0000.0001) dTtracerLev =  /* Tracer equation timestep ( s ) */
(PID.TID 0000.0001)     4 @  3.600000000000000E+03              /* K =  1:  4 */
(PID.TID 0000.0001)     ;
(PID.TID 0000.0001) deltaTClock  =   /* Model clock timestep ( s ) */
(PID.TID 0000.0001)                 3.600000000000000E+03
(PID.TID 0000.0001)     ;
(PID.TID 0000.0001) cAdjFreq =   /* Convective adjustment interval ( s ) */
(PID.TID 0000.0001)                 0.000000000000000E+00
(PID.TID 0000.0001)     ;
(PID.TID 0000.0001) momForcingOutAB = /* =1: take Momentum Forcing out of Adams-Bash. stepping */
(PID.TID 0000.0001)                       0
(PID.TID 0000.0001)     ;
(PID.TID 0000.0001) tracForcingOutAB = /* =1: take T,S,pTr Forcing out of Adams-Bash. stepping */
(PID.TID 0000.0001)                       0
(PID.TID 0000.0001)     ;
(PID.TID 0000.0001) momDissip_In_AB = /* put Dissipation Tendency in Adams-Bash. stepping */
(PID.TID 0000.0001)                   T
(PID.TID 0000.0001)     ;
(PID.TID 0000.0001) doAB_onGtGs = /* apply AB on Tendencies (rather than on T,S)*/
(PID.TID 0000.0001)                   T
(PID.TID 0000.0001)     ;
(PID.TID 0000.0001) abEps =   /* Adams-Bashforth-2 stabilizing weight */
(PID.TID 0000.0001)                 1.000000000000000E-01
(PID.TID 0000.0001)     ;
(PID.TID 0000.0001) pickupStrictlyMatch= /* stop if pickup do not strictly match */
(PID.TID 0000.0001)                   T
(PID.TID 0000.0001)     ;
(PID.TID 0000.0001) nIter0   =   /* Run starting timestep number */
(PID.TID 0000.0001)                       0
(PID.TID 0000.0001)     ;
(PID.TID 0000.0001) nTimeSteps = /* Number of timesteps */
(PID.TID 0000.0001)                     100
(PID.TID 0000.0001)     ;
(PID.TID 0000.0001) nEndIter =   /* Run ending timestep number */
(PID.TID 0000.0001)                     100
(PID.TID 0000.0001)     ;
(PID.TID 0000.0001) baseTime =   /* Model base time ( s ) */
(PID.TID 0000.0001)                 0.000000000000000E+00
(PID.TID 0000.0001)     ;
(PID.TID 0000.0001) startTime =  /* Run start time ( s ) */
(PID.TID 0000.0001)                 0.000000000000000E+00
(PID.TID 0000.0001)     ;
(PID.TID 0000.0001) endTime  =   /* Integration ending time ( s ) */
(PID.TID 0000.0001)                 3.600000000000000E+05
(PID.TID 0000.0001)     ;
(PID.TID 0000.0001) pChkPtFreq = /* Permanent restart/pickup file interval ( s ) */
(PID.TID 0000.0001)                 7.776000000000000E+06
(PID.TID 0000.0001)     ;
(PID.TID 0000.0001) chkPtFreq  = /* Rolling restart/pickup file interval ( s ) */
(PID.TID 0000.0001)                 0.000000000000000E+00
(PID.TID 0000.0001)     ;
(PID.TID 0000.0001) pickup_write_mdsio =   /* Model IO flag. */
(PID.TID 0000.0001)                   T
(PID.TID 0000.0001)     ;
(PID.TID 0000.0001) pickup_read_mdsio =   /* Model IO flag. */
(PID.TID 0000.0001)                   T
(PID.TID 0000.0001)     ;
(PID.TID 0000.0001) pickup_write_mnc =   /* Model IO flag. */
(PID.TID 0000.0001)                   F
(PID.TID 0000.0001)     ;
(PID.TID 0000.0001) pickup_read_mnc =   /* Model IO flag. */
(PID.TID 0000.0001)                   F
(PID.TID 0000.0001)     ;
(PID.TID 0000.0001) pickup_write_immed =   /* Model IO flag. */
(PID.TID 0000.0001)                   F
(PID.TID 0000.0001)     ;
(PID.TID 0000.0001) writePickupAtEnd =   /* Model IO flag. */
(PID.TID 0000.0001)                   T
(PID.TID 0000.0001)     ;
(PID.TID 0000.0001) dumpFreq =   /* Model state write out interval ( s ). */
(PID.TID 0000.0001)                 0.000000000000000E+00
(PID.TID 0000.0001)     ;
(PID.TID 0000.0001) dumpInitAndLast= /* write out Initial & Last iter. model state */
(PID.TID 0000.0001)                   T
(PID.TID 0000.0001)     ;
(PID.TID 0000.0001) snapshot_mdsio =   /* Model IO flag. */
(PID.TID 0000.0001)                   T
(PID.TID 0000.0001)     ;
(PID.TID 0000.0001) snapshot_mnc =   /* Model IO flag. */
(PID.TID 0000.0001)                   F
(PID.TID 0000.0001)     ;
(PID.TID 0000.0001) monitorFreq =   /* Monitor output interval ( s ). */
(PID.TID 0000.0001)                 4.320000000000000E+04
(PID.TID 0000.0001)     ;
(PID.TID 0000.0001) monitorSelect = /* select group of variables to monitor */
(PID.TID 0000.0001)                       1
(PID.TID 0000.0001)     ;
(PID.TID 0000.0001) monitor_stdio =   /* Model IO flag. */
(PID.TID 0000.0001)                   T
(PID.TID 0000.0001)     ;
(PID.TID 0000.0001) monitor_mnc =   /* Model IO flag. */
(PID.TID 0000.0001)                   F
(PID.TID 0000.0001)     ;
(PID.TID 0000.0001) externForcingPeriod =   /* forcing period (s) */
(PID.TID 0000.0001)                 0.000000000000000E+00
(PID.TID 0000.0001)     ;
(PID.TID 0000.0001) externForcingCycle =   /* period of the cyle (s). */
(PID.TID 0000.0001)                 0.000000000000000E+00
(PID.TID 0000.0001)     ;
(PID.TID 0000.0001) tauThetaClimRelax =   /* relaxation time scale (s) */
(PID.TID 0000.0001)                 0.000000000000000E+00
(PID.TID 0000.0001)     ;
(PID.TID 0000.0001) tauSaltClimRelax =   /* relaxation time scale (s) */
(PID.TID 0000.0001)                 0.000000000000000E+00
(PID.TID 0000.0001)     ;
(PID.TID 0000.0001) latBandClimRelax =   /* max. Lat. where relaxation */
(PID.TID 0000.0001)                 3.000000000000000E+06
(PID.TID 0000.0001)     ;
(PID.TID 0000.0001) //
(PID.TID 0000.0001) // Gridding paramters ( PARM04 in namelist )
(PID.TID 0000.0001) //
(PID.TID 0000.0001) usingCartesianGrid = /* Cartesian coordinates flag ( True/False ) */
(PID.TID 0000.0001)                   T
(PID.TID 0000.0001)     ;
(PID.TID 0000.0001) usingCylindricalGrid = /* Cylindrical coordinates flag ( True/False ) */
(PID.TID 0000.0001)                   F
(PID.TID 0000.0001)     ;
(PID.TID 0000.0001) usingSphericalPolarGrid = /* Spherical coordinates flag ( True/False ) */
(PID.TID 0000.0001)                   F
(PID.TID 0000.0001)     ;
(PID.TID 0000.0001) usingCurvilinearGrid = /* Curvilinear coordinates flag ( True/False ) */
(PID.TID 0000.0001)                   F
(PID.TID 0000.0001)     ;
(PID.TID 0000.0001) selectSigmaCoord = /* Hybrid-Sigma Vert. Coordinate option */
(PID.TID 0000.0001)                       0
(PID.TID 0000.0001)     ;
(PID.TID 0000.0001) Ro_SeaLevel = /* r(1) ( units of r ==  m ) */
(PID.TID 0000.0001)                 0.000000000000000E+00
(PID.TID 0000.0001)     ;
(PID.TID 0000.0001) rSigmaBnd = /* r/sigma transition ( units of r ==  m ) */
(PID.TID 0000.0001)                 1.234567000000000E+05
(PID.TID 0000.0001)     ;
(PID.TID 0000.0001) rkSign =   /* index orientation relative to vertical coordinate */
(PID.TID 0000.0001)                -1.000000000000000E+00
(PID.TID 0000.0001)     ;
(PID.TID 0000.0001) gravitySign = /* gravity orientation relative to vertical coordinate */
(PID.TID 0000.0001)                -1.000000000000000E+00
(PID.TID 0000.0001)     ;
(PID.TID 0000.0001) mass2rUnit = /* convert mass per unit area [kg/m2] to r-units [m] */
(PID.TID 0000.0001)                 1.000200040008002E-03
(PID.TID 0000.0001)     ;
(PID.TID 0000.0001) rUnit2mass = /* convert r-units [m] to mass per unit area [kg/m2] */
(PID.TID 0000.0001)                 9.998000000000000E+02
(PID.TID 0000.0001)     ;
(PID.TID 0000.0001) drC =   /* C spacing ( units of r ) */
(PID.TID 0000.0001)                 5.000000000000000E+01,      /* K =  1 */
(PID.TID 0000.0001)                 2.500000000000000E+02,      /* K =  2 */
(PID.TID 0000.0001)                 4.500000000000000E+02,      /* K =  3 */
(PID.TID 0000.0001)                 2.750000000000000E+03       /* K =  4 */
(PID.TID 0000.0001)     ;
(PID.TID 0000.0001) drF =   /* W spacing ( units of r ) */
(PID.TID 0000.0001)                 1.000000000000000E+02,      /* K =  1 */
(PID.TID 0000.0001)                 4.000000000000000E+02,      /* K =  2 */
(PID.TID 0000.0001)                 5.000000000000000E+02,      /* K =  3 */
(PID.TID 0000.0001)                 5.000000000000000E+03       /* K =  4 */
(PID.TID 0000.0001)     ;
(PID.TID 0000.0001) delX = /* U spacing ( m - cartesian, degrees - spherical ) */
(PID.TID 0000.0001)     5 @  2.000000000000000E+05              /* I =  1:  5 */
(PID.TID 0000.0001)     ;
(PID.TID 0000.0001) delY = /* V spacing ( m - cartesian, degrees - spherical ) */
(PID.TID 0000.0001)     5 @  2.000000000000000E+05              /* J =  1:  5 */
(PID.TID 0000.0001)     ;
(PID.TID 0000.0001) xgOrigin = /* X-axis origin of West  edge (cartesian: m, lat-lon: deg.) */
(PID.TID 0000.0001)                 0.000000000000000E+00
(PID.TID 0000.0001)     ;
(PID.TID 0000.0001) ygOrigin = /* Y-axis origin of South edge (cartesian: m, lat-lon: deg.) */
(PID.TID 0000.0001)                 0.000000000000000E+00
(PID.TID 0000.0001)     ;
(PID.TID 0000.0001) rSphere =  /* Radius ( ignored - cartesian, m - spherical ) */
(PID.TID 0000.0001)                 6.370000000000000E+06
(PID.TID 0000.0001)     ;
(PID.TID 0000.0001) deepAtmosphere = /* Deep/Shallow Atmosphere flag (True/False) */
(PID.TID 0000.0001)                   F
(PID.TID 0000.0001)     ;
(PID.TID 0000.0001) xC =  /* xC(:,1,:,1) : P-point X coord ( deg. or m if cartesian) */
(PID.TID 0000.0001)                 1.000000000000000E+05,      /* I =  1 */
(PID.TID 0000.0001)                 3.000000000000000E+05,      /* I =  2 */
(PID.TID 0000.0001)                 5.000000000000000E+05,      /* I =  3 */
(PID.TID 0000.0001)                 7.000000000000000E+05,      /* I =  4 */
(PID.TID 0000.0001)                 9.000000000000000E+05       /* I =  5 */
(PID.TID 0000.0001)     ;
(PID.TID 0000.0001) yC =  /* yC(1,:,1,:) : P-point Y coord ( deg. or m if cartesian) */
(PID.TID 0000.0001)                 1.000000000000000E+05,      /* J =  1 */
(PID.TID 0000.0001)                 3.000000000000000E+05,      /* J =  2 */
(PID.TID 0000.0001)                 5.000000000000000E+05,      /* J =  3 */
(PID.TID 0000.0001)                 7.000000000000000E+05,      /* J =  4 */
(PID.TID 0000.0001)                 9.000000000000000E+05       /* J =  5 */
(PID.TID 0000.0001)     ;
(PID.TID 0000.0001) rcoord = /* P-point R coordinate (  units of r ) */
(PID.TID 0000.0001)                -5.000000000000000E+01,      /* K =  1 */
(PID.TID 0000.0001)                -3.000000000000000E+02,      /* K =  2 */
(PID.TID 0000.0001)                -7.500000000000000E+02,      /* K =  3 */
(PID.TID 0000.0001)                -3.500000000000000E+03       /* K =  4 */
(PID.TID 0000.0001)     ;
(PID.TID 0000.0001) rF =   /* W-Interf. R coordinate (  units of r ) */
(PID.TID 0000.0001)                 0.000000000000000E+00,      /* K =  1 */
(PID.TID 0000.0001)                -1.000000000000000E+02,      /* K =  2 */
(PID.TID 0000.0001)                -5.000000000000000E+02,      /* K =  3 */
(PID.TID 0000.0001)                -1.000000000000000E+03,      /* K =  4 */
(PID.TID 0000.0001)                -6.000000000000000E+03       /* K =  5 */
(PID.TID 0000.0001)     ;
(PID.TID 0000.0001) deepFacC = /* deep-model grid factor @ cell-Center (-) */
(PID.TID 0000.0001)     4 @  1.000000000000000E+00              /* K =  1:  4 */
(PID.TID 0000.0001)     ;
(PID.TID 0000.0001) deepFacF = /* deep-model grid factor @ W-Interface (-) */
(PID.TID 0000.0001)     5 @  1.000000000000000E+00              /* K =  1:  5 */
(PID.TID 0000.0001)     ;
(PID.TID 0000.0001) rVel2wUnit = /* convert units: rVel -> wSpeed (=1 if z-coord)*/
(PID.TID 0000.0001)     5 @  1.000000000000000E+00              /* K =  1:  5 */
(PID.TID 0000.0001)     ;
(PID.TID 0000.0001) wUnit2rVel = /* convert units: wSpeed -> rVel (=1 if z-coord)*/
(PID.TID 0000.0001)     5 @  1.000000000000000E+00              /* K =  1:  5 */
(PID.TID 0000.0001)     ;
(PID.TID 0000.0001) dBdrRef = /* Vertical grad. of reference buoyancy [(m/s/r)^2] */
(PID.TID 0000.0001)     4 @  0.000000000000000E+00              /* K =  1:  4 */
(PID.TID 0000.0001)     ;
(PID.TID 0000.0001) rotateGrid = /* use rotated grid ( True/False ) */
(PID.TID 0000.0001)                   F
(PID.TID 0000.0001)     ;
(PID.TID 0000.0001) phiEuler = /* Euler angle, rotation about original z-coordinate [rad] */
(PID.TID 0000.0001)                 0.000000000000000E+00
(PID.TID 0000.0001)     ;
(PID.TID 0000.0001) thetaEuler = /* Euler angle, rotation about new x-coordinate [rad] */
(PID.TID 0000.0001)                 0.000000000000000E+00
(PID.TID 0000.0001)     ;
(PID.TID 0000.0001) psiEuler = /* Euler angle, rotation about new z-coordinate [rad] */
(PID.TID 0000.0001)                 0.000000000000000E+00
(PID.TID 0000.0001)     ;
(PID.TID 0000.0001) dxF =  /* dxF(:,1,:,1) ( units: m ) */
(PID.TID 0000.0001)     5 @  2.000000000000000E+05              /* I =  1:  5 */
(PID.TID 0000.0001)     ;
(PID.TID 0000.0001) dxF =  /* dxF(1,:,1,:) ( units: m ) */
(PID.TID 0000.0001)     5 @  2.000000000000000E+05              /* J =  1:  5 */
(PID.TID 0000.0001)     ;
(PID.TID 0000.0001) dyF =  /* dyF(:,1,:,1) ( units: m ) */
(PID.TID 0000.0001)     5 @  2.000000000000000E+05              /* I =  1:  5 */
(PID.TID 0000.0001)     ;
(PID.TID 0000.0001) dyF =  /* dyF(1,:,1,:) ( units: m ) */
(PID.TID 0000.0001)     5 @  2.000000000000000E+05              /* J =  1:  5 */
(PID.TID 0000.0001)     ;
(PID.TID 0000.0001) dxG =  /* dxG(:,1,:,1) ( units: m ) */
(PID.TID 0000.0001)     5 @  2.000000000000000E+05              /* I =  1:  5 */
(PID.TID 0000.0001)     ;
(PID.TID 0000.0001) dxG =  /* dxG(1,:,1,:) ( units: m ) */
(PID.TID 0000.0001)     5 @  2.000000000000000E+05              /* J =  1:  5 */
(PID.TID 0000.0001)     ;
(PID.TID 0000.0001) dyG =  /* dyG(:,1,:,1) ( units: m ) */
(PID.TID 0000.0001)     5 @  2.000000000000000E+05              /* I =  1:  5 */
(PID.TID 0000.0001)     ;
(PID.TID 0000.0001) dyG =  /* dyG(1,:,1,:) ( units: m ) */
(PID.TID 0000.0001)     5 @  2.000000000000000E+05              /* J =  1:  5 */
(PID.TID 0000.0001)     ;
(PID.TID 0000.0001) dxC =  /* dxC(:,1,:,1) ( units: m ) */
(PID.TID 0000.0001)     5 @  2.000000000000000E+05              /* I =  1:  5 */
(PID.TID 0000.0001)     ;
(PID.TID 0000.0001) dxC =  /* dxC(1,:,1,:) ( units: m ) */
(PID.TID 0000.0001)     5 @  2.000000000000000E+05              /* J =  1:  5 */
(PID.TID 0000.0001)     ;
(PID.TID 0000.0001) dyC =  /* dyC(:,1,:,1) ( units: m ) */
(PID.TID 0000.0001)     5 @  2.000000000000000E+05              /* I =  1:  5 */
(PID.TID 0000.0001)     ;
(PID.TID 0000.0001) dyC =  /* dyC(1,:,1,:) ( units: m ) */
(PID.TID 0000.0001)     5 @  2.000000000000000E+05              /* J =  1:  5 */
(PID.TID 0000.0001)     ;
(PID.TID 0000.0001) dxV =  /* dxV(:,1,:,1) ( units: m ) */
(PID.TID 0000.0001)     5 @  2.000000000000000E+05              /* I =  1:  5 */
(PID.TID 0000.0001)     ;
(PID.TID 0000.0001) dxV =  /* dxV(1,:,1,:) ( units: m ) */
(PID.TID 0000.0001)     5 @  2.000000000000000E+05              /* J =  1:  5 */
(PID.TID 0000.0001)     ;
(PID.TID 0000.0001) dyU =  /* dyU(:,1,:,1) ( units: m ) */
(PID.TID 0000.0001)     5 @  2.000000000000000E+05              /* I =  1:  5 */
(PID.TID 0000.0001)     ;
(PID.TID 0000.0001) dyU =  /* dyU(1,:,1,:) ( units: m ) */
(PID.TID 0000.0001)     5 @  2.000000000000000E+05              /* J =  1:  5 */
(PID.TID 0000.0001)     ;
(PID.TID 0000.0001) rA  =  /* rA (:,1,:,1) ( units: m^2 ) */
(PID.TID 0000.0001)     5 @  4.000000000000000E+10              /* I =  1:  5 */
(PID.TID 0000.0001)     ;
(PID.TID 0000.0001) rA  =  /* rA (1,:,1,:) ( units: m^2 ) */
(PID.TID 0000.0001)     5 @  4.000000000000000E+10              /* J =  1:  5 */
(PID.TID 0000.0001)     ;
(PID.TID 0000.0001) rAw =  /* rAw(:,1,:,1) ( units: m^2 ) */
(PID.TID 0000.0001)     5 @  4.000000000000000E+10              /* I =  1:  5 */
(PID.TID 0000.0001)     ;
(PID.TID 0000.0001) rAw =  /* rAw(1,:,1,:) ( units: m^2 ) */
(PID.TID 0000.0001)     5 @  4.000000000000000E+10              /* J =  1:  5 */
(PID.TID 0000.0001)     ;
(PID.TID 0000.0001) rAs =  /* rAs(:,1,:,1) ( units: m^2 ) */
(PID.TID 0000.0001)     5 @  4.000000000000000E+10              /* I =  1:  5 */
(PID.TID 0000.0001)     ;
(PID.TID 0000.0001) rAs =  /* rAs(1,:,1,:) ( units: m^2 ) */
(PID.TID 0000.0001)     5 @  4.000000000000000E+10              /* J =  1:  5 */
(PID.TID 0000.0001)     ;
(PID.TID 0000.0001) globalArea = /* Integrated horizontal Area (m^2) */
(PID.TID 0000.0001)                 1.000000000000000E+12
(PID.TID 0000.0001)     ;
(PID.TID 0000.0001) // =======================================================
(PID.TID 0000.0001) // End of Model config. summary
(PID.TID 0000.0001) // =======================================================
(PID.TID 0000.0001) 
(PID.TID 0000.0001) == Packages configuration : Check & print summary ==
(PID.TID 0000.0001) 
(PID.TID 0000.0001) CTRL_CHECK: ctrl package
(PID.TID 0000.0001) COST_CHECK: cost package
(PID.TID 0000.0001) GRDCHK_CHECK: grdchk package
(PID.TID 0000.0001) GAD_CHECK: #define ALLOW_GENERIC_ADVDIFF
(PID.TID 0000.0001) // =======================================================
(PID.TID 0000.0001) // CONFIG_CHECK : Normal End
(PID.TID 0000.0001) // =======================================================
(PID.TID 0000.0001) 
(PID.TID 0000.0001)  MDS_READ_FIELD: opening global file: noWalls.bigRidge
(PID.TID 0000.0001) INI_CG2D: CG2D normalisation factor =  1.9999999999999996E-04
(PID.TID 0000.0001) 
                     ctrl_depth_ini: ctrl update R_low,
                                     adding the control vector.
(PID.TID 0000.0001)  MDS_READ_FIELD: opening file: xx_depth.0000000000.001.001.data
(PID.TID 0000.0001) Start initial hydrostatic pressure computation
(PID.TID 0000.0001) Pressure is predetermined for buoyancyRelation OCEANIC
(PID.TID 0000.0001) 
(PID.TID 0000.0001)  MDS_READ_FIELD: opening global file: windx.sin_y
(PID.TID 0000.0001) // =======================================================
(PID.TID 0000.0001) // Begin MONITOR dynamic field statistics
(PID.TID 0000.0001) // =======================================================
(PID.TID 0000.0001) %MON time_tsnumber                =                     0
(PID.TID 0000.0001) %MON time_secondsf                =   0.0000000000000E+00
(PID.TID 0000.0001) %MON dynstat_eta_max              =   0.0000000000000E+00
(PID.TID 0000.0001) %MON dynstat_eta_min              =   0.0000000000000E+00
(PID.TID 0000.0001) %MON dynstat_eta_mean             =   0.0000000000000E+00
(PID.TID 0000.0001) %MON dynstat_eta_sd               =   0.0000000000000E+00
(PID.TID 0000.0001) %MON dynstat_eta_del2             =   0.0000000000000E+00
(PID.TID 0000.0001) %MON dynstat_uvel_max             =   0.0000000000000E+00
(PID.TID 0000.0001) %MON dynstat_uvel_min             =   0.0000000000000E+00
(PID.TID 0000.0001) %MON dynstat_uvel_mean            =   0.0000000000000E+00
(PID.TID 0000.0001) %MON dynstat_uvel_sd              =   0.0000000000000E+00
(PID.TID 0000.0001) %MON dynstat_uvel_del2            =   0.0000000000000E+00
(PID.TID 0000.0001) %MON dynstat_vvel_max             =   0.0000000000000E+00
(PID.TID 0000.0001) %MON dynstat_vvel_min             =   0.0000000000000E+00
(PID.TID 0000.0001) %MON dynstat_vvel_mean            =   0.0000000000000E+00
(PID.TID 0000.0001) %MON dynstat_vvel_sd              =   0.0000000000000E+00
(PID.TID 0000.0001) %MON dynstat_vvel_del2            =   0.0000000000000E+00
(PID.TID 0000.0001) %MON dynstat_wvel_max             =  -0.0000000000000E+00
(PID.TID 0000.0001) %MON dynstat_wvel_min             =  -0.0000000000000E+00
(PID.TID 0000.0001) %MON dynstat_wvel_mean            =   0.0000000000000E+00
(PID.TID 0000.0001) %MON dynstat_wvel_sd              =   0.0000000000000E+00
(PID.TID 0000.0001) %MON dynstat_wvel_del2            =   0.0000000000000E+00
(PID.TID 0000.0001) %MON dynstat_theta_max            =   4.0000000000000E+00
(PID.TID 0000.0001) %MON dynstat_theta_min            =   4.0000000000000E+00
(PID.TID 0000.0001) %MON dynstat_theta_mean           =   4.0000000000000E+00
(PID.TID 0000.0001) %MON dynstat_theta_sd             =   0.0000000000000E+00
(PID.TID 0000.0001) %MON dynstat_theta_del2           =   0.0000000000000E+00
(PID.TID 0000.0001) %MON dynstat_salt_max             =   3.5000000000000E+01
(PID.TID 0000.0001) %MON dynstat_salt_min             =   3.5000000000000E+01
(PID.TID 0000.0001) %MON dynstat_salt_mean            =   3.5000000000000E+01
(PID.TID 0000.0001) %MON dynstat_salt_sd              =   0.0000000000000E+00
(PID.TID 0000.0001) %MON dynstat_salt_del2            =   0.0000000000000E+00
(PID.TID 0000.0001) %MON advcfl_uvel_max              =   0.0000000000000E+00
(PID.TID 0000.0001) %MON advcfl_vvel_max              =   0.0000000000000E+00
(PID.TID 0000.0001) %MON advcfl_wvel_max              =   0.0000000000000E+00
(PID.TID 0000.0001) %MON advcfl_W_hf_max              =   0.0000000000000E+00
(PID.TID 0000.0001) %MON pe_b_mean                    =   0.0000000000000E+00
(PID.TID 0000.0001) %MON ke_max                       =   0.0000000000000E+00
(PID.TID 0000.0001) %MON ke_mean                      =   0.0000000000000E+00
(PID.TID 0000.0001) %MON ke_vol                       =   4.4009158039362E+15
(PID.TID 0000.0001) // =======================================================
(PID.TID 0000.0001) // End MONITOR dynamic field statistics
(PID.TID 0000.0001) // =======================================================
(PID.TID 0000.0001) SOLVE_FOR_PRESSURE: putPmEinXvector =    F
 cg2d: Sum(rhs),rhsMax =   0.00000000000000E+00  0.00000000000000E+00
 cg2d: Sum(rhs),rhsMax =  -2.49999999999996E+01  6.03492218443698E-05
 cg2d: Sum(rhs),rhsMax =  -1.81034404639061E+01  2.18766023587220E-04
 cg2d: Sum(rhs),rhsMax =  -1.54955562832148E+01  4.32479836297444E-04
 cg2d: Sum(rhs),rhsMax =  -1.41111452329495E+01  6.49958988323420E-04
 cg2d: Sum(rhs),rhsMax =  -1.31144322332612E+01  8.30737102828386E-04
 cg2d: Sum(rhs),rhsMax =  -1.21209090325389E+01  9.52510661965283E-04
 cg2d: Sum(rhs),rhsMax =  -1.07124742372069E+01  1.02806631163207E-03
 cg2d: Sum(rhs),rhsMax =  -7.41375936665709E+00  1.27086596334071E-03
 cg2d: Sum(rhs),rhsMax =  -4.70217533455409E+00  1.51019014093808E-03
 cg2d: Sum(rhs),rhsMax =  -2.72440685927921E+00  1.65833738310010E-03
 cg2d: Sum(rhs),rhsMax =  -1.27958669047305E+00  1.70565508827135E-03
(PID.TID 0000.0001)                    cg2d_init_res =    3.28931945877902E-01
(PID.TID 0000.0001)                       cg2d_iters =    15
(PID.TID 0000.0001)                         cg2d_res =    1.73284648300796E-17
(PID.TID 0000.0001) // =======================================================
(PID.TID 0000.0001) // Begin MONITOR dynamic field statistics
(PID.TID 0000.0001) // =======================================================
(PID.TID 0000.0001) %MON time_tsnumber                =                    12
(PID.TID 0000.0001) %MON time_secondsf                =   4.3200000000000E+04
(PID.TID 0000.0001) %MON dynstat_eta_max              =   2.4526740806099E-04
(PID.TID 0000.0001) %MON dynstat_eta_min              =   6.1065609995087E-05
(PID.TID 0000.0001) %MON dynstat_eta_mean             =   1.4142817400693E-04
(PID.TID 0000.0001) %MON dynstat_eta_sd               =   6.2646419328255E-05
(PID.TID 0000.0001) %MON dynstat_eta_del2             =   1.8773690240601E-05
(PID.TID 0000.0001) %MON dynstat_uvel_max             =   6.0294166414923E-05
(PID.TID 0000.0001) %MON dynstat_uvel_min             =  -6.2312985740443E-03
(PID.TID 0000.0001) %MON dynstat_uvel_mean            =  -1.6355645184039E-04
(PID.TID 0000.0001) %MON dynstat_uvel_sd              =   8.3355810737477E-04
(PID.TID 0000.0001) %MON dynstat_uvel_del2            =   1.0724583497337E-04
(PID.TID 0000.0001) %MON dynstat_vvel_max             =   6.8951363007673E-03
(PID.TID 0000.0001) %MON dynstat_vvel_min             =  -3.1420568481397E-04
(PID.TID 0000.0001) %MON dynstat_vvel_mean            =   8.3848888000931E-05
(PID.TID 0000.0001) %MON dynstat_vvel_sd              =   7.6765140031461E-04
(PID.TID 0000.0001) %MON dynstat_vvel_del2            =   1.1668214303234E-04
(PID.TID 0000.0001) %MON dynstat_wvel_max             =   1.0276979434182E-06
(PID.TID 0000.0001) %MON dynstat_wvel_min             =  -1.2563126468518E-06
(PID.TID 0000.0001) %MON dynstat_wvel_mean            =  -1.4197159932582E-09
(PID.TID 0000.0001) %MON dynstat_wvel_sd              =   7.7903550130837E-07
(PID.TID 0000.0001) %MON dynstat_wvel_del2            =   1.4015749752175E-07
(PID.TID 0000.0001) %MON dynstat_theta_max            =   4.0000000000000E+00
(PID.TID 0000.0001) %MON dynstat_theta_min            =   4.0000000000000E+00
(PID.TID 0000.0001) %MON dynstat_theta_mean           =   4.0000000000000E+00
(PID.TID 0000.0001) %MON dynstat_theta_sd             =   0.0000000000000E+00
(PID.TID 0000.0001) %MON dynstat_theta_del2           =   0.0000000000000E+00
(PID.TID 0000.0001) %MON dynstat_salt_max             =   3.5000000000000E+01
(PID.TID 0000.0001) %MON dynstat_salt_min             =   3.5000000000000E+01
(PID.TID 0000.0001) %MON dynstat_salt_mean            =   3.5000000000000E+01
(PID.TID 0000.0001) %MON dynstat_salt_sd              =   0.0000000000000E+00
(PID.TID 0000.0001) %MON dynstat_salt_del2            =   0.0000000000000E+00
(PID.TID 0000.0001) %MON advcfl_uvel_max              =   1.1216337433280E-04
(PID.TID 0000.0001) %MON advcfl_vvel_max              =   1.2411245341381E-04
(PID.TID 0000.0001) %MON advcfl_wvel_max              =   1.6766020051950E-05
(PID.TID 0000.0001) %MON advcfl_W_hf_max              =   4.1915050129875E-05
(PID.TID 0000.0001) %MON pe_b_mean                    =   2.6667061766665E-11
(PID.TID 0000.0001) %MON ke_max                       =   3.8468619621137E-05
(PID.TID 0000.0001) %MON ke_mean                      =   6.5894456986640E-07
(PID.TID 0000.0001) %MON ke_vol                       =   4.4009158039362E+15
(PID.TID 0000.0001) // =======================================================
(PID.TID 0000.0001) // End MONITOR dynamic field statistics
(PID.TID 0000.0001) // =======================================================
 cg2d: Sum(rhs),rhsMax =  -3.29564699152530E-01  1.66071960615390E-03
 cg2d: Sum(rhs),rhsMax =   5.21320406654313E-02  1.54812756163632E-03
 cg2d: Sum(rhs),rhsMax =  -2.86625374400523E-01  1.40338816101555E-03
 cg2d: Sum(rhs),rhsMax =  -1.30315843370183E+00  1.44268599687868E-03
 cg2d: Sum(rhs),rhsMax =  -2.68067690299424E+00  1.50836886631255E-03
 cg2d: Sum(rhs),rhsMax =  -4.07407453351541E+00  1.58424366916569E-03
 cg2d: Sum(rhs),rhsMax =  -5.18272347948930E+00  1.66593592879082E-03
 cg2d: Sum(rhs),rhsMax =  -5.80990598228076E+00  1.74846175380777E-03
 cg2d: Sum(rhs),rhsMax =  -5.87740627497561E+00  1.82725971218558E-03
 cg2d: Sum(rhs),rhsMax =  -5.41358311299288E+00  1.89900434709078E-03
 cg2d: Sum(rhs),rhsMax =  -4.53080676713557E+00  1.96213934573590E-03
 cg2d: Sum(rhs),rhsMax =  -3.22587898908489E+00  2.12611202720459E-03
(PID.TID 0000.0001)                    cg2d_init_res =    3.42829930432874E-01
(PID.TID 0000.0001)                       cg2d_iters =    14
(PID.TID 0000.0001)                         cg2d_res =    2.46991106659734E-14
(PID.TID 0000.0001) // =======================================================
(PID.TID 0000.0001) // Begin MONITOR dynamic field statistics
(PID.TID 0000.0001) // =======================================================
(PID.TID 0000.0001) %MON time_tsnumber                =                    24
(PID.TID 0000.0001) %MON time_secondsf                =   8.6400000000000E+04
(PID.TID 0000.0001) %MON dynstat_eta_max              =   5.7979748274705E-04
(PID.TID 0000.0001) %MON dynstat_eta_min              =   3.2636540223300E-04
(PID.TID 0000.0001) %MON dynstat_eta_mean             =   4.4443599158160E-04
(PID.TID 0000.0001) %MON dynstat_eta_sd               =   8.4689967963543E-05
(PID.TID 0000.0001) %MON dynstat_eta_del2             =   2.5501352593503E-05
(PID.TID 0000.0001) %MON dynstat_uvel_max             =   6.7841782473987E-05
(PID.TID 0000.0001) %MON dynstat_uvel_min             =  -6.4443780978032E-03
(PID.TID 0000.0001) %MON dynstat_uvel_mean            =  -1.7306766918973E-04
(PID.TID 0000.0001) %MON dynstat_uvel_sd              =   7.2504460516430E-04
(PID.TID 0000.0001) %MON dynstat_uvel_del2            =   1.1004249497325E-04
(PID.TID 0000.0001) %MON dynstat_vvel_max             =   1.1438968082342E-02
(PID.TID 0000.0001) %MON dynstat_vvel_min             =  -3.6725089644924E-05
(PID.TID 0000.0001) %MON dynstat_vvel_mean            =   2.5160853672968E-04
(PID.TID 0000.0001) %MON dynstat_vvel_sd              =   1.5360267325394E-03
(PID.TID 0000.0001) %MON dynstat_vvel_del2            =   1.0978264787475E-04
(PID.TID 0000.0001) %MON dynstat_wvel_max             =   9.2961409099219E-07
(PID.TID 0000.0001) %MON dynstat_wvel_min             =  -6.7930212264243E-07
(PID.TID 0000.0001) %MON dynstat_wvel_mean            =   3.0021258930778E-10
(PID.TID 0000.0001) %MON dynstat_wvel_sd              =   5.8405797772280E-07
(PID.TID 0000.0001) %MON dynstat_wvel_del2            =   1.7189614548386E-07
(PID.TID 0000.0001) %MON dynstat_theta_max            =   4.0000000000000E+00
(PID.TID 0000.0001) %MON dynstat_theta_min            =   4.0000000000000E+00
(PID.TID 0000.0001) %MON dynstat_theta_mean           =   4.0000000000000E+00
(PID.TID 0000.0001) %MON dynstat_theta_sd             =   0.0000000000000E+00
(PID.TID 0000.0001) %MON dynstat_theta_del2           =   0.0000000000000E+00
(PID.TID 0000.0001) %MON dynstat_salt_max             =   3.5000000000000E+01
(PID.TID 0000.0001) %MON dynstat_salt_min             =   3.5000000000000E+01
(PID.TID 0000.0001) %MON dynstat_salt_mean            =   3.5000000000000E+01
(PID.TID 0000.0001) %MON dynstat_salt_sd              =   0.0000000000000E+00
(PID.TID 0000.0001) %MON dynstat_salt_del2            =   0.0000000000000E+00
(PID.TID 0000.0001) %MON advcfl_uvel_max              =   1.1599880576046E-04
(PID.TID 0000.0001) %MON advcfl_vvel_max              =   2.0590142548215E-04
(PID.TID 0000.0001) %MON advcfl_wvel_max              =   1.1845852451611E-05
(PID.TID 0000.0001) %MON advcfl_W_hf_max              =   2.9614631129028E-05
(PID.TID 0000.0001) %MON pe_b_mean                    =   2.2814174497810E-10
(PID.TID 0000.0001) %MON ke_max                       =   6.7077017484669E-05
(PID.TID 0000.0001) %MON ke_mean                      =   1.4891635382138E-06
(PID.TID 0000.0001) %MON ke_vol                       =   4.4009158039362E+15
(PID.TID 0000.0001) // =======================================================
(PID.TID 0000.0001) // End MONITOR dynamic field statistics
(PID.TID 0000.0001) // =======================================================
 cg2d: Sum(rhs),rhsMax =  -2.04447211883239E+00  2.24837953875888E-03
 cg2d: Sum(rhs),rhsMax =  -1.10818137305927E+00  2.30404049287479E-03
 cg2d: Sum(rhs),rhsMax =  -4.90484880946355E-01  2.29576532537697E-03
 cg2d: Sum(rhs),rhsMax =  -2.61247064583498E-01  2.23814842293958E-03
 cg2d: Sum(rhs),rhsMax =  -4.50921969321587E-01  2.26266907028511E-03
 cg2d: Sum(rhs),rhsMax =  -1.00469610672038E+00  2.31946123117386E-03
 cg2d: Sum(rhs),rhsMax =  -1.78565331428759E+00  2.37599941654387E-03
 cg2d: Sum(rhs),rhsMax =  -2.62429308819160E+00  2.42805543472492E-03
 cg2d: Sum(rhs),rhsMax =  -3.35748486680842E+00  2.47123045079746E-03
 cg2d: Sum(rhs),rhsMax =  -3.85508917834430E+00  2.50195598359617E-03
 cg2d: Sum(rhs),rhsMax =  -4.03589978211301E+00  2.51830322545867E-03
 cg2d: Sum(rhs),rhsMax =  -3.87512848171549E+00  2.52047519086831E-03
(PID.TID 0000.0001)                    cg2d_init_res =    2.33015551533524E-01
(PID.TID 0000.0001)                       cg2d_iters =    14
(PID.TID 0000.0001)                         cg2d_res =    7.19965672004505E-14
(PID.TID 0000.0001) // =======================================================
(PID.TID 0000.0001) // Begin MONITOR dynamic field statistics
(PID.TID 0000.0001) // =======================================================
(PID.TID 0000.0001) %MON time_tsnumber                =                    36
(PID.TID 0000.0001) %MON time_secondsf                =   1.2960000000000E+05
(PID.TID 0000.0001) %MON dynstat_eta_max              =   7.5759442548389E-04
(PID.TID 0000.0001) %MON dynstat_eta_min              =   5.2866006154915E-04
(PID.TID 0000.0001) %MON dynstat_eta_mean             =   6.3291230493350E-04
(PID.TID 0000.0001) %MON dynstat_eta_sd               =   8.2256111321631E-05
(PID.TID 0000.0001) %MON dynstat_eta_del2             =   2.4823335401778E-05
(PID.TID 0000.0001) %MON dynstat_uvel_max             =   1.1036128709252E-04
(PID.TID 0000.0001) %MON dynstat_uvel_min             =  -1.8819675496212E-03
(PID.TID 0000.0001) %MON dynstat_uvel_mean            =  -6.1684335664372E-05
(PID.TID 0000.0001) %MON dynstat_uvel_sd              =   2.2850585253250E-04
(PID.TID 0000.0001) %MON dynstat_uvel_del2            =   3.9573861830685E-05
(PID.TID 0000.0001) %MON dynstat_vvel_max             =   1.2947572307762E-02
(PID.TID 0000.0001) %MON dynstat_vvel_min             =  -8.6563188157009E-05
(PID.TID 0000.0001) %MON dynstat_vvel_mean            =   3.5235552401198E-04
(PID.TID 0000.0001) %MON dynstat_vvel_sd              =   1.8328698995202E-03
(PID.TID 0000.0001) %MON dynstat_vvel_del2            =   8.6136768532499E-05
(PID.TID 0000.0001) %MON dynstat_wvel_max             =   8.7008377378037E-07
(PID.TID 0000.0001) %MON dynstat_wvel_min             =  -1.3324870991560E-06
(PID.TID 0000.0001) %MON dynstat_wvel_mean            =   1.3753465598261E-09
(PID.TID 0000.0001) %MON dynstat_wvel_sd              =   6.2122331460753E-07
(PID.TID 0000.0001) %MON dynstat_wvel_del2            =   1.3414080483190E-07
(PID.TID 0000.0001) %MON dynstat_theta_max            =   4.0000000000000E+00
(PID.TID 0000.0001) %MON dynstat_theta_min            =   4.0000000000000E+00
(PID.TID 0000.0001) %MON dynstat_theta_mean           =   4.0000000000000E+00
(PID.TID 0000.0001) %MON dynstat_theta_sd             =   0.0000000000000E+00
(PID.TID 0000.0001) %MON dynstat_theta_del2           =   0.0000000000000E+00
(PID.TID 0000.0001) %MON dynstat_salt_max             =   3.5000000000000E+01
(PID.TID 0000.0001) %MON dynstat_salt_min             =   3.5000000000000E+01
(PID.TID 0000.0001) %MON dynstat_salt_mean            =   3.5000000000000E+01
(PID.TID 0000.0001) %MON dynstat_salt_sd              =   0.0000000000000E+00
(PID.TID 0000.0001) %MON dynstat_salt_del2            =   0.0000000000000E+00
(PID.TID 0000.0001) %MON advcfl_uvel_max              =   3.3875415893181E-05
(PID.TID 0000.0001) %MON advcfl_vvel_max              =   2.3305630153972E-04
(PID.TID 0000.0001) %MON advcfl_wvel_max              =   1.3681155737382E-05
(PID.TID 0000.0001) %MON advcfl_W_hf_max              =   3.4202889343454E-05
(PID.TID 0000.0001) %MON pe_b_mean                    =   4.5400154691718E-10
(PID.TID 0000.0001) %MON ke_max                       =   8.2665292286785E-05
(PID.TID 0000.0001) %MON ke_mean                      =   1.7697931828884E-06
(PID.TID 0000.0001) %MON ke_vol                       =   4.4009158039362E+15
(PID.TID 0000.0001) // =======================================================
(PID.TID 0000.0001) // End MONITOR dynamic field statistics
(PID.TID 0000.0001) // =======================================================
 cg2d: Sum(rhs),rhsMax =  -3.40600368805606E+00  2.51092921751124E-03
 cg2d: Sum(rhs),rhsMax =  -2.61682443313497E+00  2.58874087416428E-03
 cg2d: Sum(rhs),rhsMax =  -1.83238712200574E+00  2.61669730048878E-03
 cg2d: Sum(rhs),rhsMax =  -1.17513338209910E+00  2.56005946296687E-03
 cg2d: Sum(rhs),rhsMax =  -7.11994618995444E-01  2.47855830238831E-03
 cg2d: Sum(rhs),rhsMax =  -5.26422152819491E-01  2.47042092565892E-03
 cg2d: Sum(rhs),rhsMax =  -6.78930216954500E-01  2.49676870345940E-03
 cg2d: Sum(rhs),rhsMax =  -1.12673722382139E+00  2.53652611463688E-03
 cg2d: Sum(rhs),rhsMax =  -1.75981625889749E+00  2.58504763845509E-03
 cg2d: Sum(rhs),rhsMax =  -2.43940636469672E+00  2.63568090232622E-03
 cg2d: Sum(rhs),rhsMax =  -3.03203010255971E+00  2.68092813759027E-03
 cg2d: Sum(rhs),rhsMax =  -3.40991311853901E+00  2.73286304448481E-03
(PID.TID 0000.0001)                    cg2d_init_res =    1.34801658790779E-01
(PID.TID 0000.0001)                       cg2d_iters =    14
(PID.TID 0000.0001)                         cg2d_res =    7.73136290592686E-14
(PID.TID 0000.0001) // =======================================================
(PID.TID 0000.0001) // Begin MONITOR dynamic field statistics
(PID.TID 0000.0001) // =======================================================
(PID.TID 0000.0001) %MON time_tsnumber                =                    48
(PID.TID 0000.0001) %MON time_secondsf                =   1.7280000000000E+05
(PID.TID 0000.0001) %MON dynstat_eta_max              =   7.3211564950624E-04
(PID.TID 0000.0001) %MON dynstat_eta_min              =   5.0057127856482E-04
(PID.TID 0000.0001) %MON dynstat_eta_mean             =   6.0385989541704E-04
(PID.TID 0000.0001) %MON dynstat_eta_sd               =   7.5540803583716E-05
(PID.TID 0000.0001) %MON dynstat_eta_del2             =   2.4287420960805E-05
(PID.TID 0000.0001) %MON dynstat_uvel_max             =   1.9294775347149E-03
(PID.TID 0000.0001) %MON dynstat_uvel_min             =  -1.2535253296377E-04
(PID.TID 0000.0001) %MON dynstat_uvel_mean            =   7.0472439030430E-05
(PID.TID 0000.0001) %MON dynstat_uvel_sd              =   2.4814023814711E-04
(PID.TID 0000.0001) %MON dynstat_uvel_del2            =   3.3520291439674E-05
(PID.TID 0000.0001) %MON dynstat_vvel_max             =   1.1907122242336E-02
(PID.TID 0000.0001) %MON dynstat_vvel_min             =  -7.6854757138051E-05
(PID.TID 0000.0001) %MON dynstat_vvel_mean            =   3.3026959483785E-04
(PID.TID 0000.0001) %MON dynstat_vvel_sd              =   1.7065724998475E-03
(PID.TID 0000.0001) %MON dynstat_vvel_del2            =   6.5625101815959E-05
(PID.TID 0000.0001) %MON dynstat_wvel_max             =   5.5106758024674E-07
(PID.TID 0000.0001) %MON dynstat_wvel_min             =  -4.7283529660537E-07
(PID.TID 0000.0001) %MON dynstat_wvel_mean            =   1.5416046248794E-09
(PID.TID 0000.0001) %MON dynstat_wvel_sd              =   2.9788275795432E-07
(PID.TID 0000.0001) %MON dynstat_wvel_del2            =   9.3266771681172E-08
(PID.TID 0000.0001) %MON dynstat_theta_max            =   4.0000000000000E+00
(PID.TID 0000.0001) %MON dynstat_theta_min            =   4.0000000000000E+00
(PID.TID 0000.0001) %MON dynstat_theta_mean           =   4.0000000000000E+00
(PID.TID 0000.0001) %MON dynstat_theta_sd             =   0.0000000000000E+00
(PID.TID 0000.0001) %MON dynstat_theta_del2           =   0.0000000000000E+00
(PID.TID 0000.0001) %MON dynstat_salt_max             =   3.5000000000000E+01
(PID.TID 0000.0001) %MON dynstat_salt_min             =   3.5000000000000E+01
(PID.TID 0000.0001) %MON dynstat_salt_mean            =   3.5000000000000E+01
(PID.TID 0000.0001) %MON dynstat_salt_sd              =   0.0000000000000E+00
(PID.TID 0000.0001) %MON dynstat_salt_del2            =   0.0000000000000E+00
(PID.TID 0000.0001) %MON advcfl_uvel_max              =   3.4730595624868E-05
(PID.TID 0000.0001) %MON advcfl_vvel_max              =   2.1432820036205E-04
(PID.TID 0000.0001) %MON advcfl_wvel_max              =   8.5304960984616E-06
(PID.TID 0000.0001) %MON advcfl_W_hf_max              =   1.9838432888883E-05
(PID.TID 0000.0001) %MON pe_b_mean                    =   4.1277371795493E-10
(PID.TID 0000.0001) %MON ke_max                       =   7.1228073413104E-05
(PID.TID 0000.0001) %MON ke_mean                      =   1.5440038224804E-06
(PID.TID 0000.0001) %MON ke_vol                       =   4.4009158039362E+15
(PID.TID 0000.0001) // =======================================================
(PID.TID 0000.0001) // End MONITOR dynamic field statistics
(PID.TID 0000.0001) // =======================================================
 cg2d: Sum(rhs),rhsMax =  -3.48046023235820E+00  2.80943922930573E-03
 cg2d: Sum(rhs),rhsMax =  -3.32063073087976E+00  2.84054009236553E-03
 cg2d: Sum(rhs),rhsMax =  -2.96079447598363E+00  2.82589058192357E-03
 cg2d: Sum(rhs),rhsMax =  -2.32992811105151E+00  2.92147975447444E-03
 cg2d: Sum(rhs),rhsMax =  -1.72242456195874E+00  2.94384963610314E-03
 cg2d: Sum(rhs),rhsMax =  -1.21221903664757E+00  2.89157780595211E-03
 cg2d: Sum(rhs),rhsMax =  -8.69698394722555E-01  2.78046458206126E-03
 cg2d: Sum(rhs),rhsMax =  -7.64867805246293E-01  2.63730950806145E-03
 cg2d: Sum(rhs),rhsMax =  -9.31747849420179E-01  2.54529703304593E-03
 cg2d: Sum(rhs),rhsMax =  -1.31074338891572E+00  2.59464768533880E-03
 cg2d: Sum(rhs),rhsMax =  -1.82960843215047E+00  2.67470088166808E-03
 cg2d: Sum(rhs),rhsMax =  -2.36415409295811E+00  2.77096212192831E-03
(PID.TID 0000.0001)                    cg2d_init_res =    1.40501452001063E-01
(PID.TID 0000.0001)                       cg2d_iters =    14
(PID.TID 0000.0001)                         cg2d_res =    5.02990577430124E-14
(PID.TID 0000.0001) // =======================================================
(PID.TID 0000.0001) // Begin MONITOR dynamic field statistics
(PID.TID 0000.0001) // =======================================================
(PID.TID 0000.0001) %MON time_tsnumber                =                    60
(PID.TID 0000.0001) %MON time_secondsf                =   2.1600000000000E+05
(PID.TID 0000.0001) %MON dynstat_eta_max              =   5.4597414746448E-04
(PID.TID 0000.0001) %MON dynstat_eta_min              =   3.1889129984899E-04
(PID.TID 0000.0001) %MON dynstat_eta_mean             =   4.2450359744087E-04
(PID.TID 0000.0001) %MON dynstat_eta_sd               =   7.2394391705008E-05
(PID.TID 0000.0001) %MON dynstat_eta_del2             =   2.4289919467653E-05
(PID.TID 0000.0001) %MON dynstat_uvel_max             =   2.7288959561322E-03
(PID.TID 0000.0001) %MON dynstat_uvel_min             =  -1.2151394941084E-04
(PID.TID 0000.0001) %MON dynstat_uvel_mean            =   1.2889482987333E-04
(PID.TID 0000.0001) %MON dynstat_uvel_sd              =   4.0667421161600E-04
(PID.TID 0000.0001) %MON dynstat_uvel_del2            =   3.5453390416871E-05
(PID.TID 0000.0001) %MON dynstat_vvel_max             =   1.0111433049374E-02
(PID.TID 0000.0001) %MON dynstat_vvel_min             =  -6.9878354584856E-05
(PID.TID 0000.0001) %MON dynstat_vvel_mean            =   2.2492321141225E-04
(PID.TID 0000.0001) %MON dynstat_vvel_sd              =   1.4010051719206E-03
(PID.TID 0000.0001) %MON dynstat_vvel_del2            =   7.4635570897415E-05
(PID.TID 0000.0001) %MON dynstat_wvel_max             =   6.5752912870401E-07
(PID.TID 0000.0001) %MON dynstat_wvel_min             =  -4.4367533934012E-07
(PID.TID 0000.0001) %MON dynstat_wvel_mean            =   1.5863149913986E-09
(PID.TID 0000.0001) %MON dynstat_wvel_sd              =   3.6181859037321E-07
(PID.TID 0000.0001) %MON dynstat_wvel_del2            =   1.1364273066845E-07
(PID.TID 0000.0001) %MON dynstat_theta_max            =   4.0000000000000E+00
(PID.TID 0000.0001) %MON dynstat_theta_min            =   4.0000000000000E+00
(PID.TID 0000.0001) %MON dynstat_theta_mean           =   4.0000000000000E+00
(PID.TID 0000.0001) %MON dynstat_theta_sd             =   0.0000000000000E+00
(PID.TID 0000.0001) %MON dynstat_theta_del2           =   0.0000000000000E+00
(PID.TID 0000.0001) %MON dynstat_salt_max             =   3.5000000000000E+01
(PID.TID 0000.0001) %MON dynstat_salt_min             =   3.5000000000000E+01
(PID.TID 0000.0001) %MON dynstat_salt_mean            =   3.5000000000000E+01
(PID.TID 0000.0001) %MON dynstat_salt_sd              =   0.0000000000000E+00
(PID.TID 0000.0001) %MON dynstat_salt_del2            =   0.0000000000000E+00
(PID.TID 0000.0001) %MON advcfl_uvel_max              =   4.9120127210380E-05
(PID.TID 0000.0001) %MON advcfl_vvel_max              =   1.8200579488873E-04
(PID.TID 0000.0001) %MON advcfl_wvel_max              =   1.0000347389244E-05
(PID.TID 0000.0001) %MON advcfl_W_hf_max              =   2.3671048633344E-05
(PID.TID 0000.0001) %MON pe_b_mean                    =   2.0668517588572E-10
(PID.TID 0000.0001) %MON ke_max                       =   5.1396462800041E-05
(PID.TID 0000.0001) %MON ke_mean                      =   1.0977018671709E-06
(PID.TID 0000.0001) %MON ke_vol                       =   4.4009158039362E+15
(PID.TID 0000.0001) // =======================================================
(PID.TID 0000.0001) // End MONITOR dynamic field statistics
(PID.TID 0000.0001) // =======================================================
 cg2d: Sum(rhs),rhsMax =  -2.80794779573490E+00  2.86583706110112E-03
 cg2d: Sum(rhs),rhsMax =  -3.09076538041151E+00  2.94225354196765E-03
 cg2d: Sum(rhs),rhsMax =  -3.17911023925372E+00  2.98708407054009E-03
 cg2d: Sum(rhs),rhsMax =  -3.06968980756687E+00  2.99369701908631E-03
 cg2d: Sum(rhs),rhsMax =  -2.74200030638393E+00  3.00868116540026E-03
 cg2d: Sum(rhs),rhsMax =  -2.22987018400988E+00  3.08320497040957E-03
 cg2d: Sum(rhs),rhsMax =  -1.72892384261757E+00  3.09216603140175E-03
 cg2d: Sum(rhs),rhsMax =  -1.30661126211170E+00  3.03707924765662E-03
 cg2d: Sum(rhs),rhsMax =  -1.02724587665602E+00  2.93201255430208E-03
 cg2d: Sum(rhs),rhsMax =  -9.49612083397601E-01  2.80059569221645E-03
 cg2d: Sum(rhs),rhsMax =  -1.10546681688728E+00  2.68802011902948E-03
 cg2d: Sum(rhs),rhsMax =  -1.41911846031719E+00  2.73183503865475E-03
(PID.TID 0000.0001)                    cg2d_init_res =    1.57477350793973E-01
(PID.TID 0000.0001)                       cg2d_iters =    14
(PID.TID 0000.0001)                         cg2d_res =    3.98035414420836E-15
(PID.TID 0000.0001) // =======================================================
(PID.TID 0000.0001) // Begin MONITOR dynamic field statistics
(PID.TID 0000.0001) // =======================================================
(PID.TID 0000.0001) %MON time_tsnumber                =                    72
(PID.TID 0000.0001) %MON time_secondsf                =   2.5920000000000E+05
(PID.TID 0000.0001) %MON dynstat_eta_max              =   3.7377077836293E-04
(PID.TID 0000.0001) %MON dynstat_eta_min              =   1.3435108009900E-04
(PID.TID 0000.0001) %MON dynstat_eta_mean             =   2.5121648019648E-04
(PID.TID 0000.0001) %MON dynstat_eta_sd               =   7.5910019577097E-05
(PID.TID 0000.0001) %MON dynstat_eta_del2             =   2.5786806170968E-05
(PID.TID 0000.0001) %MON dynstat_uvel_max             =   2.0066301964522E-03
(PID.TID 0000.0001) %MON dynstat_uvel_min             =  -1.3628870188011E-04
(PID.TID 0000.0001) %MON dynstat_uvel_mean            =   8.8354210865248E-05
(PID.TID 0000.0001) %MON dynstat_uvel_sd              =   2.9275992474829E-04
(PID.TID 0000.0001) %MON dynstat_uvel_del2            =   3.6664939201502E-05
(PID.TID 0000.0001) %MON dynstat_vvel_max             =   8.6949164248194E-03
(PID.TID 0000.0001) %MON dynstat_vvel_min             =  -5.1198133241082E-04
(PID.TID 0000.0001) %MON dynstat_vvel_mean            =   1.2475387629289E-04
(PID.TID 0000.0001) %MON dynstat_vvel_sd              =   1.1880617020090E-03
(PID.TID 0000.0001) %MON dynstat_vvel_del2            =   8.3685473824739E-05
(PID.TID 0000.0001) %MON dynstat_wvel_max             =   7.2125205216692E-07
(PID.TID 0000.0001) %MON dynstat_wvel_min             =  -6.2121320296667E-07
(PID.TID 0000.0001) %MON dynstat_wvel_mean            =  -2.7399198787949E-10
(PID.TID 0000.0001) %MON dynstat_wvel_sd              =   4.5989094488568E-07
(PID.TID 0000.0001) %MON dynstat_wvel_del2            =   1.3861434996455E-07
(PID.TID 0000.0001) %MON dynstat_theta_max            =   4.0000000000000E+00
(PID.TID 0000.0001) %MON dynstat_theta_min            =   4.0000000000000E+00
(PID.TID 0000.0001) %MON dynstat_theta_mean           =   4.0000000000000E+00
(PID.TID 0000.0001) %MON dynstat_theta_sd             =   0.0000000000000E+00
(PID.TID 0000.0001) %MON dynstat_theta_del2           =   0.0000000000000E+00
(PID.TID 0000.0001) %MON dynstat_salt_max             =   3.5000000000000E+01
(PID.TID 0000.0001) %MON dynstat_salt_min             =   3.5000000000000E+01
(PID.TID 0000.0001) %MON dynstat_salt_mean            =   3.5000000000000E+01
(PID.TID 0000.0001) %MON dynstat_salt_sd              =   0.0000000000000E+00
(PID.TID 0000.0001) %MON dynstat_salt_del2            =   0.0000000000000E+00
(PID.TID 0000.0001) %MON advcfl_uvel_max              =   3.6119343536140E-05
(PID.TID 0000.0001) %MON advcfl_vvel_max              =   1.5650849564675E-04
(PID.TID 0000.0001) %MON advcfl_wvel_max              =   9.8721178438354E-06
(PID.TID 0000.0001) %MON advcfl_W_hf_max              =   2.4680294609589E-05
(PID.TID 0000.0001) %MON pe_b_mean                    =   7.6760707356840E-11
(PID.TID 0000.0001) %MON ke_max                       =   3.5945766562656E-05
(PID.TID 0000.0001) %MON ke_mean                      =   7.6028448877342E-07
(PID.TID 0000.0001) %MON ke_vol                       =   4.4009158039362E+15
(PID.TID 0000.0001) // =======================================================
(PID.TID 0000.0001) // End MONITOR dynamic field statistics
(PID.TID 0000.0001) // =======================================================
 cg2d: Sum(rhs),rhsMax =  -1.85263652552160E+00  2.80075124009609E-03
 cg2d: Sum(rhs),rhsMax =  -2.30607105577749E+00  2.88121984326696E-03
 cg2d: Sum(rhs),rhsMax =  -2.69038333389278E+00  2.95745898573299E-03
 cg2d: Sum(rhs),rhsMax =  -2.94313285401590E+00  3.01465309603794E-03
 cg2d: Sum(rhs),rhsMax =  -3.03123924248607E+00  3.04190025811534E-03
 cg2d: Sum(rhs),rhsMax =  -2.94785322566267E+00  3.03433140059540E-03
 cg2d: Sum(rhs),rhsMax =  -2.61356655263094E+00  3.10365978565922E-03
 cg2d: Sum(rhs),rhsMax =  -2.18161317311325E+00  3.16115505489443E-03
 cg2d: Sum(rhs),rhsMax =  -1.75526123517840E+00  3.15966313972239E-03
 cg2d: Sum(rhs),rhsMax =  -1.39603742971206E+00  3.10114912749773E-03
 cg2d: Sum(rhs),rhsMax =  -1.16177139472083E+00  2.99876546018412E-03
 cg2d: Sum(rhs),rhsMax =  -1.10293746482227E+00  2.87411083831753E-03
(PID.TID 0000.0001)                    cg2d_init_res =    1.05337918151207E-01
(PID.TID 0000.0001)                       cg2d_iters =    14
(PID.TID 0000.0001)                         cg2d_res =    4.09162364067658E-14
(PID.TID 0000.0001) // =======================================================
(PID.TID 0000.0001) // Begin MONITOR dynamic field statistics
(PID.TID 0000.0001) // =======================================================
(PID.TID 0000.0001) %MON time_tsnumber                =                    84
(PID.TID 0000.0001) %MON time_secondsf                =   3.0240000000000E+05
(PID.TID 0000.0001) %MON dynstat_eta_max              =   3.3692566886073E-04
(PID.TID 0000.0001) %MON dynstat_eta_min              =   7.3980548589551E-05
(PID.TID 0000.0001) %MON dynstat_eta_mean             =   2.0541370100176E-04
(PID.TID 0000.0001) %MON dynstat_eta_sd               =   8.2740068428321E-05
(PID.TID 0000.0001) %MON dynstat_eta_del2             =   2.7676926391985E-05
(PID.TID 0000.0001) %MON dynstat_uvel_max             =   6.8665943414567E-04
(PID.TID 0000.0001) %MON dynstat_uvel_min             =  -1.4052038712851E-04
(PID.TID 0000.0001) %MON dynstat_uvel_mean            =  -3.9275665296774E-06
(PID.TID 0000.0001) %MON dynstat_uvel_sd              =   9.2430013947490E-05
(PID.TID 0000.0001) %MON dynstat_uvel_del2            =   3.7219970452911E-05
(PID.TID 0000.0001) %MON dynstat_vvel_max             =   8.6148358150846E-03
(PID.TID 0000.0001) %MON dynstat_vvel_min             =  -8.6022287513478E-04
(PID.TID 0000.0001) %MON dynstat_vvel_mean            =   9.7053487927683E-05
(PID.TID 0000.0001) %MON dynstat_vvel_sd              =   1.1575210370247E-03
(PID.TID 0000.0001) %MON dynstat_vvel_del2            =   8.8072918525907E-05
(PID.TID 0000.0001) %MON dynstat_wvel_max             =   9.1643140674302E-07
(PID.TID 0000.0001) %MON dynstat_wvel_min             =  -9.4775690096948E-07
(PID.TID 0000.0001) %MON dynstat_wvel_mean            =  -2.5843872404121E-09
(PID.TID 0000.0001) %MON dynstat_wvel_sd              =   6.1943122380693E-07
(PID.TID 0000.0001) %MON dynstat_wvel_del2            =   1.4502731368640E-07
(PID.TID 0000.0001) %MON dynstat_theta_max            =   4.0000000000000E+00
(PID.TID 0000.0001) %MON dynstat_theta_min            =   4.0000000000000E+00
(PID.TID 0000.0001) %MON dynstat_theta_mean           =   4.0000000000000E+00
(PID.TID 0000.0001) %MON dynstat_theta_sd             =   0.0000000000000E+00
(PID.TID 0000.0001) %MON dynstat_theta_del2           =   0.0000000000000E+00
(PID.TID 0000.0001) %MON dynstat_salt_max             =   3.5000000000000E+01
(PID.TID 0000.0001) %MON dynstat_salt_min             =   3.5000000000000E+01
(PID.TID 0000.0001) %MON dynstat_salt_mean            =   3.5000000000000E+01
(PID.TID 0000.0001) %MON dynstat_salt_sd              =   0.0000000000000E+00
(PID.TID 0000.0001) %MON dynstat_salt_del2            =   0.0000000000000E+00
(PID.TID 0000.0001) %MON advcfl_uvel_max              =   1.2359869814622E-05
(PID.TID 0000.0001) %MON advcfl_vvel_max              =   1.5506704467152E-04
(PID.TID 0000.0001) %MON advcfl_wvel_max              =   1.1287289517200E-05
(PID.TID 0000.0001) %MON advcfl_W_hf_max              =   2.6885972686919E-05
(PID.TID 0000.0001) %MON pe_b_mean                    =   5.4657866889391E-11
(PID.TID 0000.0001) %MON ke_max                       =   3.2734108642380E-05
(PID.TID 0000.0001) %MON ke_mean                      =   6.7891653196537E-07
(PID.TID 0000.0001) %MON ke_vol                       =   4.4009158039362E+15
(PID.TID 0000.0001) // =======================================================
(PID.TID 0000.0001) // End MONITOR dynamic field statistics
(PID.TID 0000.0001) // =======================================================
 cg2d: Sum(rhs),rhsMax =  -1.24975133363537E+00  2.75286355082885E-03
 cg2d: Sum(rhs),rhsMax =  -1.53840868920596E+00  2.75098215542078E-03
 cg2d: Sum(rhs),rhsMax =  -1.91301872651505E+00  2.81271668012766E-03
 cg2d: Sum(rhs),rhsMax =  -2.30705941137190E+00  2.88449380033005E-03
 cg2d: Sum(rhs),rhsMax =  -2.64297554250683E+00  2.95188724418165E-03
 cg2d: Sum(rhs),rhsMax =  -2.86495130756361E+00  3.00154117451829E-03
 cg2d: Sum(rhs),rhsMax =  -2.94238810044245E+00  3.02377925014885E-03
 cg2d: Sum(rhs),rhsMax =  -2.84207312153519E+00  3.04217207355399E-03
 cg2d: Sum(rhs),rhsMax =  -2.51902174703890E+00  3.13830805734545E-03
 cg2d: Sum(rhs),rhsMax =  -2.14123729035314E+00  3.18959324319448E-03
 cg2d: Sum(rhs),rhsMax =  -1.76835917692967E+00  3.18714933359252E-03
 cg2d: Sum(rhs),rhsMax =  -1.45590348225905E+00  3.13272230350790E-03
(PID.TID 0000.0001)                    cg2d_init_res =    7.71253611967965E-02
(PID.TID 0000.0001)                       cg2d_iters =    14
(PID.TID 0000.0001)                         cg2d_res =    6.10706947308686E-14
(PID.TID 0000.0001) // =======================================================
(PID.TID 0000.0001) // Begin MONITOR dynamic field statistics
(PID.TID 0000.0001) // =======================================================
(PID.TID 0000.0001) %MON time_tsnumber                =                    96
(PID.TID 0000.0001) %MON time_secondsf                =   3.4560000000000E+05
(PID.TID 0000.0001) %MON dynstat_eta_max              =   4.3540139047003E-04
(PID.TID 0000.0001) %MON dynstat_eta_min              =   1.5177995273532E-04
(PID.TID 0000.0001) %MON dynstat_eta_mean             =   2.9554899692868E-04
(PID.TID 0000.0001) %MON dynstat_eta_sd               =   8.7582153729850E-05
(PID.TID 0000.0001) %MON dynstat_eta_del2             =   2.8748881725199E-05
(PID.TID 0000.0001) %MON dynstat_uvel_max             =   1.0547673190852E-04
(PID.TID 0000.0001) %MON dynstat_uvel_min             =  -1.0166241929416E-03
(PID.TID 0000.0001) %MON dynstat_uvel_mean            =  -7.4708936166460E-05
(PID.TID 0000.0001) %MON dynstat_uvel_sd              =   1.8260190025298E-04
(PID.TID 0000.0001) %MON dynstat_uvel_del2            =   4.4341514805118E-05
(PID.TID 0000.0001) %MON dynstat_vvel_max             =   9.1004496269361E-03
(PID.TID 0000.0001) %MON dynstat_vvel_min             =  -5.5615174574910E-04
(PID.TID 0000.0001) %MON dynstat_vvel_mean            =   1.4635828282634E-04
(PID.TID 0000.0001) %MON dynstat_vvel_sd              =   1.2316145137127E-03
(PID.TID 0000.0001) %MON dynstat_vvel_del2            =   8.3381871515712E-05
(PID.TID 0000.0001) %MON dynstat_wvel_max             =   8.6771950095179E-07
(PID.TID 0000.0001) %MON dynstat_wvel_min             =  -7.3379675236532E-07
(PID.TID 0000.0001) %MON dynstat_wvel_mean            =  -2.2853756596266E-09
(PID.TID 0000.0001) %MON dynstat_wvel_sd              =   5.1863476637447E-07
(PID.TID 0000.0001) %MON dynstat_wvel_del2            =   1.3118872263334E-07
(PID.TID 0000.0001) %MON dynstat_theta_max            =   4.0000000000000E+00
(PID.TID 0000.0001) %MON dynstat_theta_min            =   4.0000000000000E+00
(PID.TID 0000.0001) %MON dynstat_theta_mean           =   4.0000000000000E+00
(PID.TID 0000.0001) %MON dynstat_theta_sd             =   0.0000000000000E+00
(PID.TID 0000.0001) %MON dynstat_theta_del2           =   0.0000000000000E+00
(PID.TID 0000.0001) %MON dynstat_salt_max             =   3.5000000000000E+01
(PID.TID 0000.0001) %MON dynstat_salt_min             =   3.5000000000000E+01
(PID.TID 0000.0001) %MON dynstat_salt_mean            =   3.5000000000000E+01
(PID.TID 0000.0001) %MON dynstat_salt_sd              =   0.0000000000000E+00
(PID.TID 0000.0001) %MON dynstat_salt_del2            =   0.0000000000000E+00
(PID.TID 0000.0001) %MON advcfl_uvel_max              =   1.8299235472948E-05
(PID.TID 0000.0001) %MON advcfl_vvel_max              =   1.6380809328485E-04
(PID.TID 0000.0001) %MON advcfl_wvel_max              =   1.1491019749850E-05
(PID.TID 0000.0001) %MON advcfl_W_hf_max              =   2.5123399139359E-05
(PID.TID 0000.0001) %MON pe_b_mean                    =   1.0590348732941E-10
(PID.TID 0000.0001) %MON ke_max                       =   3.7093135033999E-05
(PID.TID 0000.0001) %MON ke_mean                      =   7.8860996822939E-07
(PID.TID 0000.0001) %MON ke_vol                       =   4.4009158039362E+15
(PID.TID 0000.0001) // =======================================================
(PID.TID 0000.0001) // End MONITOR dynamic field statistics
(PID.TID 0000.0001) // =======================================================
 cg2d: Sum(rhs),rhsMax =  -1.25508069255513E+00  3.03818418537008E-03
 cg2d: Sum(rhs),rhsMax =  -1.20874902175854E+00  2.92305993444264E-03
 cg2d: Sum(rhs),rhsMax =  -1.34034308737631E+00  2.81059307777595E-03
 cg2d: Sum(rhs),rhsMax =  -1.62624329945784E+00  2.74190571580757E-03
(PID.TID 0000.0001) %CHECKPOINT       100 ckptA
 --> objf_test(bi,bj)   =  0.509071982061516D-01
 --> objf_tracer(bi,bj) =  0.000000000000000D+00
 --> objf_atl(bi,bj)    =  0.000000000000000D+00
  local fc =  0.509071982061516D-01
 global fc =  0.509071982061516D-01
(PID.TID 0000.0001) SOLVE_FOR_PRESSURE: putPmEinXvector =    F
 cg2d: Sum(rhs),rhsMax =   0.00000000000000E+00  0.00000000000000E+00
 cg2d: Sum(rhs),rhsMax =  -2.49999999999996E+01  6.03492218443698E-05
 cg2d: Sum(rhs),rhsMax =  -1.81034404639061E+01  2.18766023587220E-04
 cg2d: Sum(rhs),rhsMax =  -1.54955562832148E+01  4.32479836297444E-04
 cg2d: Sum(rhs),rhsMax =  -1.41111452329495E+01  6.49958988323420E-04
 cg2d: Sum(rhs),rhsMax =  -1.31144322332612E+01  8.30737102828386E-04
 cg2d: Sum(rhs),rhsMax =  -1.21209090325389E+01  9.52510661965283E-04
 cg2d: Sum(rhs),rhsMax =  -1.07124742372069E+01  1.02806631163207E-03
 cg2d: Sum(rhs),rhsMax =  -7.41375936665709E+00  1.27086596334071E-03
 cg2d: Sum(rhs),rhsMax =  -4.70217533455409E+00  1.51019014093808E-03
 cg2d: Sum(rhs),rhsMax =  -2.72440685927921E+00  1.65833738310010E-03
 cg2d: Sum(rhs),rhsMax =  -1.27958669047305E+00  1.70565508827135E-03
 cg2d: Sum(rhs),rhsMax =  -3.29564699152530E-01  1.66071960615390E-03
 cg2d: Sum(rhs),rhsMax =   5.21320406654313E-02  1.54812756163632E-03
 cg2d: Sum(rhs),rhsMax =  -2.86625374400523E-01  1.40338816101555E-03
 cg2d: Sum(rhs),rhsMax =  -1.30315843370183E+00  1.44268599687868E-03
 cg2d: Sum(rhs),rhsMax =  -2.68067690299424E+00  1.50836886631255E-03
 cg2d: Sum(rhs),rhsMax =  -4.07407453351541E+00  1.58424366916569E-03
 cg2d: Sum(rhs),rhsMax =  -5.18272347948930E+00  1.66593592879082E-03
 cg2d: Sum(rhs),rhsMax =  -5.80990598228076E+00  1.74846175380777E-03
 cg2d: Sum(rhs),rhsMax =  -5.87740627497561E+00  1.82725971218558E-03
 cg2d: Sum(rhs),rhsMax =  -5.41358311299288E+00  1.89900434709078E-03
 cg2d: Sum(rhs),rhsMax =  -4.53080676713557E+00  1.96213934573590E-03
 cg2d: Sum(rhs),rhsMax =  -3.22587898908489E+00  2.12611202720459E-03
 cg2d: Sum(rhs),rhsMax =  -2.04447211883239E+00  2.24837953875888E-03
 cg2d: Sum(rhs),rhsMax =  -1.10818137305927E+00  2.30404049287479E-03
 cg2d: Sum(rhs),rhsMax =  -4.90484880946355E-01  2.29576532537697E-03
 cg2d: Sum(rhs),rhsMax =  -2.61247064583498E-01  2.23814842293958E-03
 cg2d: Sum(rhs),rhsMax =  -4.50921969321587E-01  2.26266907028511E-03
 cg2d: Sum(rhs),rhsMax =  -1.00469610672038E+00  2.31946123117386E-03
 cg2d: Sum(rhs),rhsMax =  -1.78565331428759E+00  2.37599941654387E-03
 cg2d: Sum(rhs),rhsMax =  -2.62429308819160E+00  2.42805543472492E-03
 cg2d: Sum(rhs),rhsMax =  -3.35748486680842E+00  2.47123045079746E-03
 cg2d: Sum(rhs),rhsMax =  -3.85508917834430E+00  2.50195598359617E-03
 cg2d: Sum(rhs),rhsMax =  -4.03589978211301E+00  2.51830322545867E-03
 cg2d: Sum(rhs),rhsMax =  -3.87512848171549E+00  2.52047519086831E-03
 cg2d: Sum(rhs),rhsMax =  -3.40600368805606E+00  2.51092921751124E-03
 cg2d: Sum(rhs),rhsMax =  -2.61682443313497E+00  2.58874087416428E-03
 cg2d: Sum(rhs),rhsMax =  -1.83238712200574E+00  2.61669730048878E-03
 cg2d: Sum(rhs),rhsMax =  -1.17513338209910E+00  2.56005946296687E-03
 cg2d: Sum(rhs),rhsMax =  -7.11994618995444E-01  2.47855830238831E-03
 cg2d: Sum(rhs),rhsMax =  -5.26422152819491E-01  2.47042092565892E-03
 cg2d: Sum(rhs),rhsMax =  -6.78930216954500E-01  2.49676870345940E-03
 cg2d: Sum(rhs),rhsMax =  -1.12673722382139E+00  2.53652611463688E-03
 cg2d: Sum(rhs),rhsMax =  -1.75981625889749E+00  2.58504763845509E-03
 cg2d: Sum(rhs),rhsMax =  -2.43940636469672E+00  2.63568090232622E-03
 cg2d: Sum(rhs),rhsMax =  -3.03203010255971E+00  2.68092813759027E-03
 cg2d: Sum(rhs),rhsMax =  -3.40991311853901E+00  2.73286304448481E-03
 cg2d: Sum(rhs),rhsMax =  -3.48046023235820E+00  2.80943922930573E-03
 cg2d: Sum(rhs),rhsMax =  -3.32063073087976E+00  2.84054009236553E-03
 cg2d: Sum(rhs),rhsMax =  -2.96079447598363E+00  2.82589058192357E-03
 cg2d: Sum(rhs),rhsMax =  -2.32992811105151E+00  2.92147975447444E-03
 cg2d: Sum(rhs),rhsMax =  -1.72242456195874E+00  2.94384963610314E-03
 cg2d: Sum(rhs),rhsMax =  -1.21221903664757E+00  2.89157780595211E-03
 cg2d: Sum(rhs),rhsMax =  -8.69698394722555E-01  2.78046458206126E-03
 cg2d: Sum(rhs),rhsMax =  -7.64867805246293E-01  2.63730950806145E-03
 cg2d: Sum(rhs),rhsMax =  -9.31747849420179E-01  2.54529703304593E-03
 cg2d: Sum(rhs),rhsMax =  -1.31074338891572E+00  2.59464768533880E-03
 cg2d: Sum(rhs),rhsMax =  -1.82960843215047E+00  2.67470088166808E-03
 cg2d: Sum(rhs),rhsMax =  -2.36415409295811E+00  2.77096212192831E-03
 cg2d: Sum(rhs),rhsMax =  -2.80794779573490E+00  2.86583706110112E-03
 cg2d: Sum(rhs),rhsMax =  -3.09076538041151E+00  2.94225354196765E-03
 cg2d: Sum(rhs),rhsMax =  -3.17911023925372E+00  2.98708407054009E-03
 cg2d: Sum(rhs),rhsMax =  -3.06968980756687E+00  2.99369701908631E-03
 cg2d: Sum(rhs),rhsMax =  -2.74200030638393E+00  3.00868116540026E-03
 cg2d: Sum(rhs),rhsMax =  -2.22987018400988E+00  3.08320497040957E-03
 cg2d: Sum(rhs),rhsMax =  -1.72892384261757E+00  3.09216603140175E-03
 cg2d: Sum(rhs),rhsMax =  -1.30661126211170E+00  3.03707924765662E-03
 cg2d: Sum(rhs),rhsMax =  -1.02724587665602E+00  2.93201255430208E-03
 cg2d: Sum(rhs),rhsMax =  -9.49612083397601E-01  2.80059569221645E-03
 cg2d: Sum(rhs),rhsMax =  -1.10546681688728E+00  2.68802011902948E-03
 cg2d: Sum(rhs),rhsMax =  -1.41911846031719E+00  2.73183503865475E-03
 cg2d: Sum(rhs),rhsMax =  -1.85263652552160E+00  2.80075124009609E-03
 cg2d: Sum(rhs),rhsMax =  -2.30607105577749E+00  2.88121984326696E-03
 cg2d: Sum(rhs),rhsMax =  -2.69038333389278E+00  2.95745898573299E-03
 cg2d: Sum(rhs),rhsMax =  -2.94313285401590E+00  3.01465309603794E-03
 cg2d: Sum(rhs),rhsMax =  -3.03123924248607E+00  3.04190025811534E-03
 cg2d: Sum(rhs),rhsMax =  -2.94785322566267E+00  3.03433140059540E-03
 cg2d: Sum(rhs),rhsMax =  -2.61356655263094E+00  3.10365978565922E-03
 cg2d: Sum(rhs),rhsMax =  -2.18161317311325E+00  3.16115505489443E-03
 cg2d: Sum(rhs),rhsMax =  -1.75526123517840E+00  3.15966313972239E-03
 cg2d: Sum(rhs),rhsMax =  -1.39603742971206E+00  3.10114912749773E-03
 cg2d: Sum(rhs),rhsMax =  -1.16177139472083E+00  2.99876546018412E-03
 cg2d: Sum(rhs),rhsMax =  -1.10293746482227E+00  2.87411083831753E-03
 cg2d: Sum(rhs),rhsMax =  -1.24975133363537E+00  2.75286355082885E-03
 cg2d: Sum(rhs),rhsMax =  -1.53840868920596E+00  2.75098215542078E-03
 cg2d: Sum(rhs),rhsMax =  -1.91301872651505E+00  2.81271668012766E-03
 cg2d: Sum(rhs),rhsMax =  -2.30705941137190E+00  2.88449380033005E-03
 cg2d: Sum(rhs),rhsMax =  -2.64297554250683E+00  2.95188724418165E-03
 cg2d: Sum(rhs),rhsMax =  -2.86495130756361E+00  3.00154117451829E-03
 cg2d: Sum(rhs),rhsMax =  -2.94238810044245E+00  3.02377925014885E-03
 cg2d: Sum(rhs),rhsMax =  -2.84207312153519E+00  3.04217207355399E-03
 cg2d: Sum(rhs),rhsMax =  -2.51902174703890E+00  3.13830805734545E-03
 cg2d: Sum(rhs),rhsMax =  -2.14123729035314E+00  3.18959324319448E-03
 cg2d: Sum(rhs),rhsMax =  -1.76835917692967E+00  3.18714933359252E-03
 cg2d: Sum(rhs),rhsMax =  -1.45590348225905E+00  3.13272230350790E-03
 cg2d: Sum(rhs),rhsMax =  -1.25508069255513E+00  3.03818418537008E-03
 cg2d: Sum(rhs),rhsMax =  -1.20874902175854E+00  2.92305993444264E-03
 cg2d: Sum(rhs),rhsMax =  -1.34034308737631E+00  2.81059307777595E-03
 cg2d: Sum(rhs),rhsMax =  -1.62624329945784E+00  2.74190571580757E-03
(PID.TID 0000.0001) Did not write pickup because writePickupAtEnd = FALSE
(PID.TID 0000.0001) Did not write pickup because writePickupAtEnd = FALSE
(PID.TID 0000.0001) Did not write pickup because writePickupAtEnd = FALSE
(PID.TID 0000.0001)  MDS_READ_FIELD: opening global file: noWalls.bigRidge
                     ctrl_depth_ini: ctrl update R_low,
                                     adding the control vector.
(PID.TID 0000.0001)  MDS_READ_FIELD: opening file: xx_depth.0000000000.001.001.data
(PID.TID 0000.0001) Start initial hydrostatic pressure computation
(PID.TID 0000.0001) Pressure is predetermined for buoyancyRelation OCEANIC
(PID.TID 0000.0001) 
(PID.TID 0000.0001)  MDS_READ_FIELD: opening file: adxx_depth.0000000000.001.001.data
 ph-pack: packing ecco_cost
(PID.TID 0000.0001)  MDSREADFIELD_GL: opening file: maskCtrlC.001.001.data
(PID.TID 0000.0001)  MDSREADFIELD_GL: opening file: adxx_depth.0000000000.001.001.data
 ph-pack: packing ecco_ctrl
(PID.TID 0000.0001)  MDSREADFIELD_GL: opening file: maskCtrlC.001.001.data
(PID.TID 0000.0001)  MDSREADFIELD_GL: opening file: xx_depth.0000000000.001.001.data
 ph-check entering grdchk_main 
 ph-check fcref =   5.09071982061515965E-002
grad-res -------------------------------
 grad-res  proc    #    i    j    k   bi   bj iobc               fc ref           fc + eps           fc - eps
 grad-res  proc    #    i    j    k   bi   bj iobc             adj grad            fd grad         1 - fd/adj
 ph-grd -->hit<--            1           1           1           1
(PID.TID 0000.0001)  MDS_READ_FIELD: opening file: adxx_depth.0000000000.001.001.data
(PID.TID 0000.0001)  MDS_READ_FIELD: opening file: xx_depth.0000000000.001.001.data
(PID.TID 0000.0001)  MDS_READ_FIELD: opening global file: noWalls.bigRidge
(PID.TID 0000.0001) INI_CG2D: CG2D normalisation factor =  1.9999999999999996E-04
(PID.TID 0000.0001) 
                     ctrl_depth_ini: ctrl update R_low,
                                     adding the control vector.
(PID.TID 0000.0001)  MDS_READ_FIELD: opening file: xx_depth.0000000000.001.001.data
(PID.TID 0000.0001) Start initial hydrostatic pressure computation
(PID.TID 0000.0001) Pressure is predetermined for buoyancyRelation OCEANIC
(PID.TID 0000.0001) 
(PID.TID 0000.0001)  MDS_READ_FIELD: opening global file: windx.sin_y
(PID.TID 0000.0001) // =======================================================
(PID.TID 0000.0001) // Model current state
(PID.TID 0000.0001) // =======================================================
(PID.TID 0000.0001) 
(PID.TID 0000.0001) SOLVE_FOR_PRESSURE: putPmEinXvector =    F
 cg2d: Sum(rhs),rhsMax =   0.00000000000000E+00  0.00000000000000E+00
 cg2d: Sum(rhs),rhsMax =  -2.49999999999996E+01  6.03492218443698E-05
 cg2d: Sum(rhs),rhsMax =  -1.81034404639061E+01  2.18766023587220E-04
 cg2d: Sum(rhs),rhsMax =  -1.54955563053272E+01  4.32479835680202E-04
 cg2d: Sum(rhs),rhsMax =  -1.41111452562852E+01  6.49958987247206E-04
 cg2d: Sum(rhs),rhsMax =  -1.31144322506233E+01  8.30737101724767E-04
 cg2d: Sum(rhs),rhsMax =  -1.21209090397491E+01  9.52510661391564E-04
 cg2d: Sum(rhs),rhsMax =  -1.07124742363595E+01  1.02806631170214E-03
 cg2d: Sum(rhs),rhsMax =  -7.41375936832817E+00  1.27086596303475E-03
 cg2d: Sum(rhs),rhsMax =  -4.70217533515011E+00  1.51019014071476E-03
 cg2d: Sum(rhs),rhsMax =  -2.72440685909780E+00  1.65833738316241E-03
 cg2d: Sum(rhs),rhsMax =  -1.27958668997905E+00  1.70565508886198E-03
 cg2d: Sum(rhs),rhsMax =  -3.29564698869136E-01  1.66071960751689E-03
 cg2d: Sum(rhs),rhsMax =   5.21320405510718E-02  1.54812756397473E-03
 cg2d: Sum(rhs),rhsMax =  -2.86625373789564E-01  1.40338816445427E-03
 cg2d: Sum(rhs),rhsMax =  -1.30315843448693E+00  1.44268599614768E-03
 cg2d: Sum(rhs),rhsMax =  -2.68067690527127E+00  1.50836886510308E-03
 cg2d: Sum(rhs),rhsMax =  -4.07407453789157E+00  1.58424366750066E-03
 cg2d: Sum(rhs),rhsMax =  -5.18272348585383E+00  1.66593592675274E-03
 cg2d: Sum(rhs),rhsMax =  -5.80990598978349E+00  1.74846175152580E-03
 cg2d: Sum(rhs),rhsMax =  -5.87740628239590E+00  1.82725970981273E-03
 cg2d: Sum(rhs),rhsMax =  -5.41358311922760E+00  1.89900434477566E-03
 cg2d: Sum(rhs),rhsMax =  -4.53080677154884E+00  1.96213934359428E-03
 cg2d: Sum(rhs),rhsMax =  -3.22587897556233E+00  2.12611203567568E-03
 cg2d: Sum(rhs),rhsMax =  -2.04447210973963E+00  2.24837954786822E-03
 cg2d: Sum(rhs),rhsMax =  -1.10818136723709E+00  2.30404050297156E-03
 cg2d: Sum(rhs),rhsMax =  -4.90484877350060E-01  2.29576533682778E-03
 cg2d: Sum(rhs),rhsMax =  -2.61247061678087E-01  2.23814843607113E-03
 cg2d: Sum(rhs),rhsMax =  -4.50921968156767E-01  2.26266906827964E-03
 cg2d: Sum(rhs),rhsMax =  -1.00469610603890E+00  2.31946122869945E-03
 cg2d: Sum(rhs),rhsMax =  -1.78565331459880E+00  2.37599941350943E-03
 cg2d: Sum(rhs),rhsMax =  -2.62429308987655E+00  2.42805543110744E-03
 cg2d: Sum(rhs),rhsMax =  -3.35748486991849E+00  2.47123044664492E-03
 cg2d: Sum(rhs),rhsMax =  -3.85508918250000E+00  2.50195597901767E-03
 cg2d: Sum(rhs),rhsMax =  -4.03589978656052E+00  2.51830322060374E-03
 cg2d: Sum(rhs),rhsMax =  -3.87512848551859E+00  2.52047518589939E-03
 cg2d: Sum(rhs),rhsMax =  -3.40600369034579E+00  2.51092921257507E-03
 cg2d: Sum(rhs),rhsMax =  -2.61682442423892E+00  2.58874087816787E-03
 cg2d: Sum(rhs),rhsMax =  -1.83238711380676E+00  2.61669730449346E-03
 cg2d: Sum(rhs),rhsMax =  -1.17513337426491E+00  2.56005946664407E-03
 cg2d: Sum(rhs),rhsMax =  -7.11994603006380E-01  2.47855833361189E-03
 cg2d: Sum(rhs),rhsMax =  -5.26422146000886E-01  2.47042092135890E-03
 cg2d: Sum(rhs),rhsMax =  -6.78930209790172E-01  2.49676869905945E-03
 cg2d: Sum(rhs),rhsMax =  -1.12673721690942E+00  2.53652611003383E-03
 cg2d: Sum(rhs),rhsMax =  -1.75981625267600E+00  2.58504763357739E-03
 cg2d: Sum(rhs),rhsMax =  -2.43940635934217E+00  2.63568089714716E-03
 cg2d: Sum(rhs),rhsMax =  -3.03203009792250E+00  2.68092813213143E-03
 cg2d: Sum(rhs),rhsMax =  -3.40991318113150E+00  2.73286298511366E-03
 cg2d: Sum(rhs),rhsMax =  -3.48046029579082E+00  2.80943916833855E-03
 cg2d: Sum(rhs),rhsMax =  -3.32063079186188E+00  2.84054002913352E-03
 cg2d: Sum(rhs),rhsMax =  -2.96079453116881E+00  2.82589051585430E-03
 cg2d: Sum(rhs),rhsMax =  -2.32992809406440E+00  2.92147975743620E-03
 cg2d: Sum(rhs),rhsMax =  -1.72242454477321E+00  2.94384963883220E-03
 cg2d: Sum(rhs),rhsMax =  -1.21221901874158E+00  2.89157780812862E-03
 cg2d: Sum(rhs),rhsMax =  -8.69698375425709E-01  2.78046458344595E-03
 cg2d: Sum(rhs),rhsMax =  -7.64867783942659E-01  2.63730950854064E-03
 cg2d: Sum(rhs),rhsMax =  -9.31747856150176E-01  2.54529695107745E-03
 cg2d: Sum(rhs),rhsMax =  -1.31074340671604E+00  2.59464760223539E-03
 cg2d: Sum(rhs),rhsMax =  -1.82960846482968E+00  2.67470079764046E-03
 cg2d: Sum(rhs),rhsMax =  -2.36415414020600E+00  2.77096203692712E-03
 cg2d: Sum(rhs),rhsMax =  -2.80794785448625E+00  2.86583697483012E-03
 cg2d: Sum(rhs),rhsMax =  -3.09076544640772E+00  2.94225345395066E-03
 cg2d: Sum(rhs),rhsMax =  -3.17911030791853E+00  2.98708398022701E-03
 cg2d: Sum(rhs),rhsMax =  -3.06968987421371E+00  2.99369692597479E-03
 cg2d: Sum(rhs),rhsMax =  -2.74200027692959E+00  3.00868116462949E-03
 cg2d: Sum(rhs),rhsMax =  -2.22987015384483E+00  3.08320496939328E-03
 cg2d: Sum(rhs),rhsMax =  -1.72892381118364E+00  3.09216602984355E-03
 cg2d: Sum(rhs),rhsMax =  -1.30661122869228E+00  3.03707924530390E-03
 cg2d: Sum(rhs),rhsMax =  -1.02724584054024E+00  2.93201255099672E-03
 cg2d: Sum(rhs),rhsMax =  -9.49612044136545E-01  2.80059568792458E-03
 cg2d: Sum(rhs),rhsMax =  -1.10546681800592E+00  2.68802000884374E-03
 cg2d: Sum(rhs),rhsMax =  -1.41911847273228E+00  2.73183492765419E-03
 cg2d: Sum(rhs),rhsMax =  -1.85263655359331E+00  2.80075112831435E-03
 cg2d: Sum(rhs),rhsMax =  -2.30607109976239E+00  2.88121973046193E-03
 cg2d: Sum(rhs),rhsMax =  -2.69038339106491E+00  2.95745887142922E-03
 cg2d: Sum(rhs),rhsMax =  -2.94313292004927E+00  3.01465297961793E-03
 cg2d: Sum(rhs),rhsMax =  -3.03123931232151E+00  3.04190013894104E-03
 cg2d: Sum(rhs),rhsMax =  -2.94785329383004E+00  3.03433127813546E-03
 cg2d: Sum(rhs),rhsMax =  -2.61356650711808E+00  3.10365977865343E-03
 cg2d: Sum(rhs),rhsMax =  -2.18161312623214E+00  3.16115504717869E-03
 cg2d: Sum(rhs),rhsMax =  -1.75526118604586E+00  3.15966313102079E-03
 cg2d: Sum(rhs),rhsMax =  -1.39603737741013E+00  3.10114911761467E-03
 cg2d: Sum(rhs),rhsMax =  -1.16177133853029E+00  2.99876544904510E-03
 cg2d: Sum(rhs),rhsMax =  -1.10293740454133E+00  2.87411082598448E-03
 cg2d: Sum(rhs),rhsMax =  -1.24975126986095E+00  2.75286353748707E-03
 cg2d: Sum(rhs),rhsMax =  -1.53840869665202E+00  2.75098201366444E-03
 cg2d: Sum(rhs),rhsMax =  -1.91301875126798E+00  2.81271653764187E-03
 cg2d: Sum(rhs),rhsMax =  -2.30705945389248E+00  2.88449365686168E-03
 cg2d: Sum(rhs),rhsMax =  -2.64297559986561E+00  2.95188709923622E-03
 cg2d: Sum(rhs),rhsMax =  -2.86495137488367E+00  3.00154102745631E-03
 cg2d: Sum(rhs),rhsMax =  -2.94238817189889E+00  3.02377910031028E-03
 cg2d: Sum(rhs),rhsMax =  -2.84207305995246E+00  3.04217205839790E-03
 cg2d: Sum(rhs),rhsMax =  -2.51902168451886E+00  3.13830804152661E-03
 cg2d: Sum(rhs),rhsMax =  -2.14123722587231E+00  3.18959322637136E-03
 cg2d: Sum(rhs),rhsMax =  -1.76835910939448E+00  3.18714931547075E-03
 cg2d: Sum(rhs),rhsMax =  -1.45590341066746E+00  3.13272228389843E-03
 cg2d: Sum(rhs),rhsMax =  -1.25508061628046E+00  3.03818416422644E-03
 cg2d: Sum(rhs),rhsMax =  -1.20874894090595E+00  2.92305991186995E-03
 cg2d: Sum(rhs),rhsMax =  -1.34034300304602E+00  2.81059305400946E-03
 cg2d: Sum(rhs),rhsMax =  -1.62624330268178E+00  2.74190554185838E-03
(PID.TID 0000.0001) Did not write pickup because writePickupAtEnd = FALSE
 --> objf_test(bi,bj)   =  0.509071989555271D-01
 --> objf_tracer(bi,bj) =  0.000000000000000D+00
 --> objf_atl(bi,bj)    =  0.000000000000000D+00
  local fc =  0.509071989555271D-01
 global fc =  0.509071989555271D-01
 ph-check fcpertplus =   5.09071989555271304E-002
(PID.TID 0000.0001)  MDS_READ_FIELD: opening file: xx_depth.0000000000.001.001.data
 ph-check fcpertminus =   5.09071982061515965E-002
(PID.TID 0000.0001)  MDS_READ_FIELD: opening file: xx_depth.0000000000.001.001.data
(PID.TID 0000.0001)  MDS_READ_FIELD: opening global file: noWalls.bigRidge
(PID.TID 0000.0001) INI_CG2D: CG2D normalisation factor =  1.9999999999999996E-04
(PID.TID 0000.0001) 
                     ctrl_depth_ini: ctrl update R_low,
                                     adding the control vector.
(PID.TID 0000.0001)  MDS_READ_FIELD: opening file: xx_depth.0000000000.001.001.data
(PID.TID 0000.0001) Start initial hydrostatic pressure computation
(PID.TID 0000.0001) Pressure is predetermined for buoyancyRelation OCEANIC
(PID.TID 0000.0001) 
(PID.TID 0000.0001)  MDS_READ_FIELD: opening global file: windx.sin_y
(PID.TID 0000.0001) // =======================================================
(PID.TID 0000.0001) // Model current state
(PID.TID 0000.0001) // =======================================================
(PID.TID 0000.0001) 
(PID.TID 0000.0001) SOLVE_FOR_PRESSURE: putPmEinXvector =    F
 cg2d: Sum(rhs),rhsMax =   0.00000000000000E+00  0.00000000000000E+00
 cg2d: Sum(rhs),rhsMax =  -2.49999999999996E+01  6.03492218443698E-05
 cg2d: Sum(rhs),rhsMax =  -1.81034404639061E+01  2.18766023587220E-04
 cg2d: Sum(rhs),rhsMax =  -1.54955562611023E+01  4.32479836914689E-04
 cg2d: Sum(rhs),rhsMax =  -1.41111452096139E+01  6.49958989399631E-04
 cg2d: Sum(rhs),rhsMax =  -1.31144322158993E+01  8.30737103932002E-04
 cg2d: Sum(rhs),rhsMax =  -1.21209090253284E+01  9.52510662539024E-04
 cg2d: Sum(rhs),rhsMax =  -1.07124742380545E+01  1.02806631156199E-03
 cg2d: Sum(rhs),rhsMax =  -7.41375936498600E+00  1.27086596364669E-03
 cg2d: Sum(rhs),rhsMax =  -4.70217533395801E+00  1.51019014116142E-03
 cg2d: Sum(rhs),rhsMax =  -2.72440685946064E+00  1.65833738303781E-03
 cg2d: Sum(rhs),rhsMax =  -1.27958669096708E+00  1.70565508768073E-03
 cg2d: Sum(rhs),rhsMax =  -3.29564699435959E-01  1.66071960479091E-03
 cg2d: Sum(rhs),rhsMax =   5.21320407797560E-02  1.54812755929790E-03
 cg2d: Sum(rhs),rhsMax =  -2.86625375011521E-01  1.40338815757684E-03
 cg2d: Sum(rhs),rhsMax =  -1.30315843291678E+00  1.44268599760967E-03
 cg2d: Sum(rhs),rhsMax =  -2.68067690071723E+00  1.50836886752203E-03
 cg2d: Sum(rhs),rhsMax =  -4.07407452913930E+00  1.58424367083072E-03
 cg2d: Sum(rhs),rhsMax =  -5.18272347312479E+00  1.66593593082889E-03
 cg2d: Sum(rhs),rhsMax =  -5.80990597477800E+00  1.74846175608976E-03
 cg2d: Sum(rhs),rhsMax =  -5.87740626755531E+00  1.82725971455845E-03
 cg2d: Sum(rhs),rhsMax =  -5.41358310675823E+00  1.89900434940589E-03
 cg2d: Sum(rhs),rhsMax =  -4.53080676272224E+00  1.96213934787756E-03
 cg2d: Sum(rhs),rhsMax =  -3.22587900260742E+00  2.12611201873353E-03
 cg2d: Sum(rhs),rhsMax =  -2.04447212792518E+00  2.24837952964953E-03
 cg2d: Sum(rhs),rhsMax =  -1.10818137888145E+00  2.30404048277803E-03
 cg2d: Sum(rhs),rhsMax =  -4.90484884542666E-01  2.29576531392617E-03
 cg2d: Sum(rhs),rhsMax =  -2.61247067488928E-01  2.23814840980804E-03
 cg2d: Sum(rhs),rhsMax =  -4.50921970486428E-01  2.26266907229058E-03
 cg2d: Sum(rhs),rhsMax =  -1.00469610740186E+00  2.31946123364828E-03
 cg2d: Sum(rhs),rhsMax =  -1.78565331397640E+00  2.37599941957830E-03
 cg2d: Sum(rhs),rhsMax =  -2.62429308650668E+00  2.42805543834241E-03
 cg2d: Sum(rhs),rhsMax =  -3.35748486369835E+00  2.47123045495002E-03
 cg2d: Sum(rhs),rhsMax =  -3.85508917418864E+00  2.50195598817465E-03
 cg2d: Sum(rhs),rhsMax =  -4.03589977766551E+00  2.51830323031361E-03
 cg2d: Sum(rhs),rhsMax =  -3.87512847791246E+00  2.52047519583720E-03
 cg2d: Sum(rhs),rhsMax =  -3.40600368576632E+00  2.51092922244743E-03
 cg2d: Sum(rhs),rhsMax =  -2.61682444203102E+00  2.58874087016070E-03
 cg2d: Sum(rhs),rhsMax =  -1.83238713020470E+00  2.61669729648411E-03
 cg2d: Sum(rhs),rhsMax =  -1.17513338993330E+00  2.56005945928966E-03
 cg2d: Sum(rhs),rhsMax =  -7.11994634984512E-01  2.47855827116472E-03
 cg2d: Sum(rhs),rhsMax =  -5.26422159638095E-01  2.47042092995894E-03
 cg2d: Sum(rhs),rhsMax =  -6.78930224118829E-01  2.49676870785935E-03
 cg2d: Sum(rhs),rhsMax =  -1.12673723073336E+00  2.53652611923993E-03
 cg2d: Sum(rhs),rhsMax =  -1.75981626511898E+00  2.58504764333280E-03
 cg2d: Sum(rhs),rhsMax =  -2.43940637005126E+00  2.63568090750528E-03
 cg2d: Sum(rhs),rhsMax =  -3.03203010719691E+00  2.68092814304912E-03
 cg2d: Sum(rhs),rhsMax =  -3.40991305594651E+00  2.73286310385596E-03
 cg2d: Sum(rhs),rhsMax =  -3.48046016892557E+00  2.80943929027293E-03
 cg2d: Sum(rhs),rhsMax =  -3.32063066989763E+00  2.84054015559756E-03
 cg2d: Sum(rhs),rhsMax =  -2.96079442079842E+00  2.82589064799286E-03
 cg2d: Sum(rhs),rhsMax =  -2.32992812803866E+00  2.92147975151262E-03
 cg2d: Sum(rhs),rhsMax =  -1.72242457914427E+00  2.94384963337406E-03
 cg2d: Sum(rhs),rhsMax =  -1.21221905455354E+00  2.89157780377562E-03
 cg2d: Sum(rhs),rhsMax =  -8.69698414019378E-01  2.78046458067658E-03
 cg2d: Sum(rhs),rhsMax =  -7.64867826549910E-01  2.63730950758226E-03
 cg2d: Sum(rhs),rhsMax =  -9.31747842690171E-01  2.54529711501441E-03
 cg2d: Sum(rhs),rhsMax =  -1.31074337111539E+00  2.59464776844221E-03
 cg2d: Sum(rhs),rhsMax =  -1.82960839947125E+00  2.67470096569570E-03
 cg2d: Sum(rhs),rhsMax =  -2.36415404571020E+00  2.77096220692949E-03
 cg2d: Sum(rhs),rhsMax =  -2.80794773698354E+00  2.86583714737212E-03
 cg2d: Sum(rhs),rhsMax =  -3.09076531441528E+00  2.94225362998462E-03
 cg2d: Sum(rhs),rhsMax =  -3.17911017058890E+00  2.98708416085315E-03
 cg2d: Sum(rhs),rhsMax =  -3.06968974092002E+00  2.99369711219782E-03
 cg2d: Sum(rhs),rhsMax =  -2.74200033583823E+00  3.00868116617107E-03
 cg2d: Sum(rhs),rhsMax =  -2.22987021417490E+00  3.08320497142587E-03
 cg2d: Sum(rhs),rhsMax =  -1.72892387405148E+00  3.09216603295994E-03
 cg2d: Sum(rhs),rhsMax =  -1.30661129553111E+00  3.03707925000931E-03
 cg2d: Sum(rhs),rhsMax =  -1.02724591277178E+00  2.93201255760744E-03
 cg2d: Sum(rhs),rhsMax =  -9.49612122658636E-01  2.80059569650832E-03
 cg2d: Sum(rhs),rhsMax =  -1.10546681576862E+00  2.68802022921521E-03
 cg2d: Sum(rhs),rhsMax =  -1.41911844790208E+00  2.73183514965531E-03
 cg2d: Sum(rhs),rhsMax =  -1.85263649744987E+00  2.80075135187783E-03
 cg2d: Sum(rhs),rhsMax =  -2.30607101179256E+00  2.88121995607199E-03
 cg2d: Sum(rhs),rhsMax =  -2.69038327672062E+00  2.95745910003674E-03
 cg2d: Sum(rhs),rhsMax =  -2.94313278798251E+00  3.01465321245796E-03
 cg2d: Sum(rhs),rhsMax =  -3.03123917265058E+00  3.04190037728966E-03
 cg2d: Sum(rhs),rhsMax =  -2.94785315749529E+00  3.03433152305532E-03
 cg2d: Sum(rhs),rhsMax =  -2.61356659814381E+00  3.10365979266496E-03
 cg2d: Sum(rhs),rhsMax =  -2.18161321999435E+00  3.16115506261014E-03
 cg2d: Sum(rhs),rhsMax =  -1.75526128431090E+00  3.15966314842400E-03
 cg2d: Sum(rhs),rhsMax =  -1.39603748201397E+00  3.10114913738075E-03
 cg2d: Sum(rhs),rhsMax =  -1.16177145091135E+00  2.99876547132311E-03
 cg2d: Sum(rhs),rhsMax =  -1.10293752510318E+00  2.87411085065058E-03
 cg2d: Sum(rhs),rhsMax =  -1.24975139740976E+00  2.75286356417060E-03
 cg2d: Sum(rhs),rhsMax =  -1.53840868175987E+00  2.75098229717712E-03
 cg2d: Sum(rhs),rhsMax =  -1.91301870176210E+00  2.81271682261345E-03
 cg2d: Sum(rhs),rhsMax =  -2.30705936885129E+00  2.88449394379841E-03
 cg2d: Sum(rhs),rhsMax =  -2.64297548514802E+00  2.95188738912710E-03
 cg2d: Sum(rhs),rhsMax =  -2.86495124024355E+00  3.00154132158023E-03
 cg2d: Sum(rhs),rhsMax =  -2.94238802898602E+00  3.02377939998740E-03
 cg2d: Sum(rhs),rhsMax =  -2.84207318311790E+00  3.04217208871008E-03
 cg2d: Sum(rhs),rhsMax =  -2.51902180955894E+00  3.13830807316426E-03
 cg2d: Sum(rhs),rhsMax =  -2.14123735483393E+00  3.18959326001758E-03
 cg2d: Sum(rhs),rhsMax =  -1.76835924446484E+00  3.18714935171426E-03
 cg2d: Sum(rhs),rhsMax =  -1.45590355385061E+00  3.13272232311737E-03
 cg2d: Sum(rhs),rhsMax =  -1.25508076882977E+00  3.03818420651370E-03
 cg2d: Sum(rhs),rhsMax =  -1.20874910261110E+00  2.92305995701533E-03
 cg2d: Sum(rhs),rhsMax =  -1.34034317170656E+00  2.81059310154244E-03
 cg2d: Sum(rhs),rhsMax =  -1.62624329623387E+00  2.74190588975675E-03
(PID.TID 0000.0001) Did not write pickup because writePickupAtEnd = FALSE
 --> objf_test(bi,bj)   =  0.509071974567760D-01
 --> objf_tracer(bi,bj) =  0.000000000000000D+00
 --> objf_atl(bi,bj)    =  0.000000000000000D+00
  local fc =  0.509071974567760D-01
 global fc =  0.509071974567760D-01
(PID.TID 0000.0001)  MDS_READ_FIELD: opening file: xx_depth.0000000000.001.001.data
grad-res -------------------------------
 grad-res     0    1    1    1    1    1    1    1   0.509071982062E-01 0.509071989555E-01 0.509071974568E-01
 grad-res     0    1    1    1   25    1    1    1   0.749357371798E-05 0.749375582421E-05 -.243016528725E-04
(PID.TID 0000.0001)   ADM  precision_derivative_cost =    5.09071982061516E-02
(PID.TID 0000.0001)   ADM  precision_derivative_grad =    7.49357371797882E-06
 ph-grd  ierr ---------------------------
 ph-grd  ierr =            0 , icomp =            1 , ichknum =            1
 ph-grd -->hit<--            4           1           1           1
(PID.TID 0000.0001)  MDS_READ_FIELD: opening file: adxx_depth.0000000000.001.001.data
(PID.TID 0000.0001)  MDS_READ_FIELD: opening file: xx_depth.0000000000.001.001.data
(PID.TID 0000.0001)  MDS_READ_FIELD: opening global file: noWalls.bigRidge
(PID.TID 0000.0001) INI_CG2D: CG2D normalisation factor =  1.9999999999999996E-04
(PID.TID 0000.0001) 
                     ctrl_depth_ini: ctrl update R_low,
                                     adding the control vector.
(PID.TID 0000.0001)  MDS_READ_FIELD: opening file: xx_depth.0000000000.001.001.data
(PID.TID 0000.0001) Start initial hydrostatic pressure computation
(PID.TID 0000.0001) Pressure is predetermined for buoyancyRelation OCEANIC
(PID.TID 0000.0001) 
(PID.TID 0000.0001)  MDS_READ_FIELD: opening global file: windx.sin_y
(PID.TID 0000.0001) // =======================================================
(PID.TID 0000.0001) // Model current state
(PID.TID 0000.0001) // =======================================================
(PID.TID 0000.0001) 
(PID.TID 0000.0001) SOLVE_FOR_PRESSURE: putPmEinXvector =    F
 cg2d: Sum(rhs),rhsMax =   0.00000000000000E+00  0.00000000000000E+00
 cg2d: Sum(rhs),rhsMax =  -2.49999999999996E+01  6.03492218443698E-05
 cg2d: Sum(rhs),rhsMax =  -1.81034404639061E+01  2.18766023587220E-04
 cg2d: Sum(rhs),rhsMax =  -1.54955562832451E+01  4.32479836297454E-04
 cg2d: Sum(rhs),rhsMax =  -1.41111452296145E+01  6.49958988476958E-04
 cg2d: Sum(rhs),rhsMax =  -1.31144322279396E+01  8.30737103161453E-04
 cg2d: Sum(rhs),rhsMax =  -1.21209090257723E+01  9.52510662485018E-04
 cg2d: Sum(rhs),rhsMax =  -1.07124742025874E+01  1.02806631492856E-03
 cg2d: Sum(rhs),rhsMax =  -7.41375936334012E+00  1.27086596385025E-03
 cg2d: Sum(rhs),rhsMax =  -4.70217533261449E+00  1.51019014143193E-03
 cg2d: Sum(rhs),rhsMax =  -2.72440685828449E+00  1.65833738342598E-03
 cg2d: Sum(rhs),rhsMax =  -1.27958668997794E+00  1.70565508824331E-03
 cg2d: Sum(rhs),rhsMax =  -3.29564698696401E-01  1.66071960557704E-03
 cg2d: Sum(rhs),rhsMax =   5.21320413291595E-02  1.54812756033500E-03
 cg2d: Sum(rhs),rhsMax =  -2.86625374180324E-01  1.40338815886087E-03
 cg2d: Sum(rhs),rhsMax =  -1.30315843814882E+00  1.44268599128662E-03
 cg2d: Sum(rhs),rhsMax =  -2.68067691395583E+00  1.50836885983566E-03
 cg2d: Sum(rhs),rhsMax =  -4.07407454992804E+00  1.58424366257890E-03
 cg2d: Sum(rhs),rhsMax =  -5.18272349730873E+00  1.66593592288528E-03
 cg2d: Sum(rhs),rhsMax =  -5.80990599680597E+00  1.74846174924499E-03
 cg2d: Sum(rhs),rhsMax =  -5.87740628326711E+00  1.82725970936704E-03
 cg2d: Sum(rhs),rhsMax =  -5.41358311495198E+00  1.89900434606831E-03
 cg2d: Sum(rhs),rhsMax =  -4.53080676494405E+00  1.96213934618151E-03
 cg2d: Sum(rhs),rhsMax =  -3.22587899832984E+00  2.12611202025305E-03
 cg2d: Sum(rhs),rhsMax =  -2.04447212402893E+00  2.24837953146498E-03
 cg2d: Sum(rhs),rhsMax =  -1.10818137525381E+00  2.30404048505237E-03
 cg2d: Sum(rhs),rhsMax =  -4.90484881085716E-01  2.29576531680082E-03
 cg2d: Sum(rhs),rhsMax =  -2.61247063896055E-01  2.23814841338068E-03
 cg2d: Sum(rhs),rhsMax =  -4.50921969068505E-01  2.26266906253384E-03
 cg2d: Sum(rhs),rhsMax =  -1.00469610963054E+00  2.31946122046217E-03
 cg2d: Sum(rhs),rhsMax =  -1.78565332256745E+00  2.37599940333471E-03
 cg2d: Sum(rhs),rhsMax =  -2.62429310276837E+00  2.42805541977967E-03
 cg2d: Sum(rhs),rhsMax =  -3.35748488668089E+00  2.47123043503792E-03
 cg2d: Sum(rhs),rhsMax =  -3.85508920091623E+00  2.50195596794108E-03
 cg2d: Sum(rhs),rhsMax =  -4.03589980420757E+00  2.51830321066426E-03
 cg2d: Sum(rhs),rhsMax =  -3.87512850068950E+00  2.52047517740094E-03
 cg2d: Sum(rhs),rhsMax =  -3.40600370249841E+00  2.51092920547468E-03
 cg2d: Sum(rhs),rhsMax =  -2.61682442333352E+00  2.58874088190352E-03
 cg2d: Sum(rhs),rhsMax =  -1.83238711442787E+00  2.61669730832655E-03
 cg2d: Sum(rhs),rhsMax =  -1.17513337622011E+00  2.56005947091473E-03
 cg2d: Sum(rhs),rhsMax =  -7.11994622780165E-01  2.47855828105956E-03
 cg2d: Sum(rhs),rhsMax =  -5.26422153294201E-01  2.47042091255360E-03
 cg2d: Sum(rhs),rhsMax =  -6.78930218912745E-01  2.49676868819256E-03
 cg2d: Sum(rhs),rhsMax =  -1.12673722963832E+00  2.53652609703035E-03
 cg2d: Sum(rhs),rhsMax =  -1.75981627060448E+00  2.58504761864563E-03
 cg2d: Sum(rhs),rhsMax =  -2.43940638314540E+00  2.63568088072010E-03
 cg2d: Sum(rhs),rhsMax =  -3.03203012702810E+00  2.68092811477003E-03
 cg2d: Sum(rhs),rhsMax =  -3.40991306639035E+00  2.73286308534566E-03
 cg2d: Sum(rhs),rhsMax =  -3.48046018010279E+00  2.80943927066016E-03
 cg2d: Sum(rhs),rhsMax =  -3.32063068042558E+00  2.84054013472068E-03
 cg2d: Sum(rhs),rhsMax =  -2.96079442919690E+00  2.82589062572003E-03
 cg2d: Sum(rhs),rhsMax =  -2.32992809993894E+00  2.92147976736158E-03
 cg2d: Sum(rhs),rhsMax =  -1.72242455346637E+00  2.94384964928069E-03
 cg2d: Sum(rhs),rhsMax =  -1.21221903028190E+00  2.89157781942544E-03
 cg2d: Sum(rhs),rhsMax =  -8.69698389792654E-01  2.78046459586072E-03
 cg2d: Sum(rhs),rhsMax =  -7.64867800690753E-01  2.63730952223481E-03
 cg2d: Sum(rhs),rhsMax =  -9.31747830506148E-01  2.54529708420000E-03
 cg2d: Sum(rhs),rhsMax =  -1.31074336326256E+00  2.59464773638565E-03
 cg2d: Sum(rhs),rhsMax =  -1.82960839791629E+00  2.67470093240299E-03
 cg2d: Sum(rhs),rhsMax =  -2.36415405071458E+00  2.77096217236742E-03
 cg2d: Sum(rhs),rhsMax =  -2.80794774745364E+00  2.86583711147575E-03
 cg2d: Sum(rhs),rhsMax =  -3.09076532846899E+00  2.94225359267228E-03
 cg2d: Sum(rhs),rhsMax =  -3.17911018597015E+00  2.98708412204567E-03
 cg2d: Sum(rhs),rhsMax =  -3.06968975519973E+00  2.99369707183726E-03
 cg2d: Sum(rhs),rhsMax =  -2.74200029146130E+00  3.00868118383468E-03
 cg2d: Sum(rhs),rhsMax =  -2.22987017236482E+00  3.08320498924775E-03
 cg2d: Sum(rhs),rhsMax =  -1.72892383397465E+00  3.09216605066168E-03
 cg2d: Sum(rhs),rhsMax =  -1.30661125597162E+00  3.03707926737648E-03
 cg2d: Sum(rhs),rhsMax =  -1.02724587222060E+00  2.93201257453406E-03
 cg2d: Sum(rhs),rhsMax =  -9.49612079405866E-01  2.80059571301729E-03
 cg2d: Sum(rhs),rhsMax =  -1.10546679574747E+00  2.68802017902200E-03
 cg2d: Sum(rhs),rhsMax =  -1.41911843320327E+00  2.73183509825624E-03
 cg2d: Sum(rhs),rhsMax =  -1.85263649053877E+00  2.80075129922506E-03
 cg2d: Sum(rhs),rhsMax =  -2.30607101308022E+00  2.88121990207688E-03
 cg2d: Sum(rhs),rhsMax =  -2.69038328493703E+00  2.95745904458583E-03
 cg2d: Sum(rhs),rhsMax =  -2.94313280079814E+00  3.01465315543485E-03
 cg2d: Sum(rhs),rhsMax =  -3.03123918716675E+00  3.04190031859855E-03
 cg2d: Sum(rhs),rhsMax =  -2.94785317052951E+00  3.03433146264141E-03
 cg2d: Sum(rhs),rhsMax =  -2.61356653590410E+00  3.10365981166570E-03
 cg2d: Sum(rhs),rhsMax =  -2.18161316006309E+00  3.16115508134520E-03
 cg2d: Sum(rhs),rhsMax =  -1.75526122555907E+00  3.15966316664445E-03
 cg2d: Sum(rhs),rhsMax =  -1.39603742294944E+00  3.10114915494193E-03
 cg2d: Sum(rhs),rhsMax =  -1.16177138984019E+00  2.99876548821684E-03
 cg2d: Sum(rhs),rhsMax =  -1.10293746030013E+00  2.87411086700913E-03
 cg2d: Sum(rhs),rhsMax =  -1.24975132735747E+00  2.75286358024123E-03
 cg2d: Sum(rhs),rhsMax =  -1.53840865727302E+00  2.75098222576759E-03
 cg2d: Sum(rhs),rhsMax =  -1.91301868649352E+00  2.81271675009813E-03
 cg2d: Sum(rhs),rhsMax =  -2.30705936325668E+00  2.88449387008457E-03
 cg2d: Sum(rhs),rhsMax =  -2.64297548766756E+00  2.95188731408586E-03
 cg2d: Sum(rhs),rhsMax =  -2.86495124803416E+00  3.00154124507088E-03
 cg2d: Sum(rhs),rhsMax =  -2.94238803852409E+00  3.02377932188377E-03
 cg2d: Sum(rhs),rhsMax =  -2.84207309743617E+00  3.04217210782014E-03
 cg2d: Sum(rhs),rhsMax =  -2.51902172683154E+00  3.13830809211887E-03
 cg2d: Sum(rhs),rhsMax =  -2.14123727427173E+00  3.18959327846018E-03
 cg2d: Sum(rhs),rhsMax =  -1.76835916469599E+00  3.18714936936358E-03
 cg2d: Sum(rhs),rhsMax =  -1.45590347316448E+00  3.13272233982286E-03
 cg2d: Sum(rhs),rhsMax =  -1.25508068540473E+00  3.03818422228559E-03
 cg2d: Sum(rhs),rhsMax =  -1.20874901475883E+00  2.92305997202283E-03
 cg2d: Sum(rhs),rhsMax =  -1.34034307815925E+00  2.81059311608049E-03
 cg2d: Sum(rhs),rhsMax =  -1.62624325979654E+00  2.74190579865250E-03
(PID.TID 0000.0001) Did not write pickup because writePickupAtEnd = FALSE
 --> objf_test(bi,bj)   =  0.509071982523496D-01
 --> objf_tracer(bi,bj) =  0.000000000000000D+00
 --> objf_atl(bi,bj)    =  0.000000000000000D+00
  local fc =  0.509071982523496D-01
 global fc =  0.509071982523496D-01
 ph-check fcpertplus =   5.09071982523495864E-002
(PID.TID 0000.0001)  MDS_READ_FIELD: opening file: xx_depth.0000000000.001.001.data
 ph-check fcpertminus =   5.09071982061515965E-002
(PID.TID 0000.0001)  MDS_READ_FIELD: opening file: xx_depth.0000000000.001.001.data
(PID.TID 0000.0001)  MDS_READ_FIELD: opening global file: noWalls.bigRidge
(PID.TID 0000.0001) INI_CG2D: CG2D normalisation factor =  1.9999999999999996E-04
(PID.TID 0000.0001) 
                     ctrl_depth_ini: ctrl update R_low,
                                     adding the control vector.
(PID.TID 0000.0001)  MDS_READ_FIELD: opening file: xx_depth.0000000000.001.001.data
(PID.TID 0000.0001) Start initial hydrostatic pressure computation
(PID.TID 0000.0001) Pressure is predetermined for buoyancyRelation OCEANIC
(PID.TID 0000.0001) 
(PID.TID 0000.0001)  MDS_READ_FIELD: opening global file: windx.sin_y
(PID.TID 0000.0001) // =======================================================
(PID.TID 0000.0001) // Model current state
(PID.TID 0000.0001) // =======================================================
(PID.TID 0000.0001) 
(PID.TID 0000.0001) SOLVE_FOR_PRESSURE: putPmEinXvector =    F
 cg2d: Sum(rhs),rhsMax =   0.00000000000000E+00  0.00000000000000E+00
 cg2d: Sum(rhs),rhsMax =  -2.49999999999996E+01  6.03492218443698E-05
 cg2d: Sum(rhs),rhsMax =  -1.81034404639061E+01  2.18766023587220E-04
 cg2d: Sum(rhs),rhsMax =  -1.54955562831846E+01  4.32479836297433E-04
 cg2d: Sum(rhs),rhsMax =  -1.41111452362846E+01  6.49958988169880E-04
 cg2d: Sum(rhs),rhsMax =  -1.31144322385829E+01  8.30737102495324E-04
 cg2d: Sum(rhs),rhsMax =  -1.21209090393051E+01  9.52510661445578E-04
 cg2d: Sum(rhs),rhsMax =  -1.07124742718264E+01  1.02806630833559E-03
 cg2d: Sum(rhs),rhsMax =  -7.41375936997401E+00  1.27086596283119E-03
 cg2d: Sum(rhs),rhsMax =  -4.70217533649361E+00  1.51019014044425E-03
 cg2d: Sum(rhs),rhsMax =  -2.72440686027393E+00  1.65833738277424E-03
 cg2d: Sum(rhs),rhsMax =  -1.27958669096818E+00  1.70565508829938E-03
 cg2d: Sum(rhs),rhsMax =  -3.29564699608670E-01  1.66071960673076E-03
 cg2d: Sum(rhs),rhsMax =   5.21320400016951E-02  1.54812756293763E-03
 cg2d: Sum(rhs),rhsMax =  -2.86625374620732E-01  1.40338816317024E-03
 cg2d: Sum(rhs),rhsMax =  -1.30315842925486E+00  1.44268600247074E-03
 cg2d: Sum(rhs),rhsMax =  -2.68067689203266E+00  1.50836887278944E-03
 cg2d: Sum(rhs),rhsMax =  -4.07407451710278E+00  1.58424367575249E-03
 cg2d: Sum(rhs),rhsMax =  -5.18272346166991E+00  1.66593593469634E-03
 cg2d: Sum(rhs),rhsMax =  -5.80990596775552E+00  1.74846175837055E-03
 cg2d: Sum(rhs),rhsMax =  -5.87740626668409E+00  1.82725971500412E-03
 cg2d: Sum(rhs),rhsMax =  -5.41358311103379E+00  1.89900434811325E-03
 cg2d: Sum(rhs),rhsMax =  -4.53080676932700E+00  1.96213934529033E-03
 cg2d: Sum(rhs),rhsMax =  -3.22587897983992E+00  2.12611203415614E-03
 cg2d: Sum(rhs),rhsMax =  -2.04447211363586E+00  2.24837954605277E-03
 cg2d: Sum(rhs),rhsMax =  -1.10818137086474E+00  2.30404050069720E-03
 cg2d: Sum(rhs),rhsMax =  -4.90484880807013E-01  2.29576533395312E-03
 cg2d: Sum(rhs),rhsMax =  -2.61247065270964E-01  2.23814843249849E-03
 cg2d: Sum(rhs),rhsMax =  -4.50921969574690E-01  2.26266907803638E-03
 cg2d: Sum(rhs),rhsMax =  -1.00469610381023E+00  2.31946124188556E-03
 cg2d: Sum(rhs),rhsMax =  -1.78565330600774E+00  2.37599942975303E-03
 cg2d: Sum(rhs),rhsMax =  -2.62429307361486E+00  2.42805544967016E-03
 cg2d: Sum(rhs),rhsMax =  -3.35748484693596E+00  2.47123046655701E-03
 cg2d: Sum(rhs),rhsMax =  -3.85508915577239E+00  2.50195599925126E-03
 cg2d: Sum(rhs),rhsMax =  -4.03589976001848E+00  2.51830324025308E-03
 cg2d: Sum(rhs),rhsMax =  -3.87512846274152E+00  2.52047520433567E-03
 cg2d: Sum(rhs),rhsMax =  -3.40600367361373E+00  2.51092922954781E-03
 cg2d: Sum(rhs),rhsMax =  -2.61682444293643E+00  2.58874086642506E-03
 cg2d: Sum(rhs),rhsMax =  -1.83238712958362E+00  2.61669729265103E-03
 cg2d: Sum(rhs),rhsMax =  -1.17513338797811E+00  2.56005945501902E-03
 cg2d: Sum(rhs),rhsMax =  -7.11994615210746E-01  2.47855832371705E-03
 cg2d: Sum(rhs),rhsMax =  -5.26422152344800E-01  2.47042093876425E-03
 cg2d: Sum(rhs),rhsMax =  -6.78930214996281E-01  2.49676871872624E-03
 cg2d: Sum(rhs),rhsMax =  -1.12673721800448E+00  2.53652613224342E-03
 cg2d: Sum(rhs),rhsMax =  -1.75981624719052E+00  2.58504765826457E-03
 cg2d: Sum(rhs),rhsMax =  -2.43940634624805E+00  2.63568092393234E-03
 cg2d: Sum(rhs),rhsMax =  -3.03203007809133E+00  2.68092816041052E-03
 cg2d: Sum(rhs),rhsMax =  -3.40991317068768E+00  2.73286300362395E-03
 cg2d: Sum(rhs),rhsMax =  -3.48046028461361E+00  2.80943918795132E-03
 cg2d: Sum(rhs),rhsMax =  -3.32063078133392E+00  2.84054005001041E-03
 cg2d: Sum(rhs),rhsMax =  -2.96079452277034E+00  2.82589053812713E-03
 cg2d: Sum(rhs),rhsMax =  -2.32992812216411E+00  2.92147974158727E-03
 cg2d: Sum(rhs),rhsMax =  -1.72242457045111E+00  2.94384962292559E-03
 cg2d: Sum(rhs),rhsMax =  -1.21221904301323E+00  2.89157779247880E-03
 cg2d: Sum(rhs),rhsMax =  -8.69698399652442E-01  2.78046456826182E-03
 cg2d: Sum(rhs),rhsMax =  -7.64867809801824E-01  2.63730949388810E-03
 cg2d: Sum(rhs),rhsMax =  -9.31747868334207E-01  2.54529698189186E-03
 cg2d: Sum(rhs),rhsMax =  -1.31074341456889E+00  2.59464763429195E-03
 cg2d: Sum(rhs),rhsMax =  -1.82960846638465E+00  2.67470083093318E-03
 cg2d: Sum(rhs),rhsMax =  -2.36415413520163E+00  2.77096207148919E-03
 cg2d: Sum(rhs),rhsMax =  -2.80794784401614E+00  2.86583701072651E-03
 cg2d: Sum(rhs),rhsMax =  -3.09076543235402E+00  2.94225349126300E-03
 cg2d: Sum(rhs),rhsMax =  -3.17911029253727E+00  2.98708401903450E-03
 cg2d: Sum(rhs),rhsMax =  -3.06968985993397E+00  2.99369696633536E-03
 cg2d: Sum(rhs),rhsMax =  -2.74200032130651E+00  3.00868114696587E-03
 cg2d: Sum(rhs),rhsMax =  -2.22987019565489E+00  3.08320495157140E-03
 cg2d: Sum(rhs),rhsMax =  -1.72892385126046E+00  3.09216601214180E-03
 cg2d: Sum(rhs),rhsMax =  -1.30661126825175E+00  3.03707922793674E-03
 cg2d: Sum(rhs),rhsMax =  -1.02724588109141E+00  2.93201253407011E-03
 cg2d: Sum(rhs),rhsMax =  -9.49612087389299E-01  2.80059567141561E-03
 cg2d: Sum(rhs),rhsMax =  -1.10546683802706E+00  2.68802005903696E-03
 cg2d: Sum(rhs),rhsMax =  -1.41911848743107E+00  2.73183497905326E-03
 cg2d: Sum(rhs),rhsMax =  -1.85263656050439E+00  2.80075118096713E-03
 cg2d: Sum(rhs),rhsMax =  -2.30607109847472E+00  2.88121978445703E-03
 cg2d: Sum(rhs),rhsMax =  -2.69038338284849E+00  2.95745892688013E-03
 cg2d: Sum(rhs),rhsMax =  -2.94313290723362E+00  3.01465303664104E-03
 cg2d: Sum(rhs),rhsMax =  -3.03123929780534E+00  3.04190019763214E-03
 cg2d: Sum(rhs),rhsMax =  -2.94785328079579E+00  3.03433133854938E-03
 cg2d: Sum(rhs),rhsMax =  -2.61356656935773E+00  3.10365975965273E-03
 cg2d: Sum(rhs),rhsMax =  -2.18161318616336E+00  3.16115502844366E-03
 cg2d: Sum(rhs),rhsMax =  -1.75526124479767E+00  3.15966311280033E-03
 cg2d: Sum(rhs),rhsMax =  -1.39603743647463E+00  3.10114910005349E-03
 cg2d: Sum(rhs),rhsMax =  -1.16177139960143E+00  2.99876543215138E-03
 cg2d: Sum(rhs),rhsMax =  -1.10293746934436E+00  2.87411080962592E-03
 cg2d: Sum(rhs),rhsMax =  -1.24975133991321E+00  2.75286352141647E-03
 cg2d: Sum(rhs),rhsMax =  -1.53840872113886E+00  2.75098208507398E-03
 cg2d: Sum(rhs),rhsMax =  -1.91301876653652E+00  2.81271661015719E-03
 cg2d: Sum(rhs),rhsMax =  -2.30705945948708E+00  2.88449373057553E-03
 cg2d: Sum(rhs),rhsMax =  -2.64297559734605E+00  2.95188717427746E-03
 cg2d: Sum(rhs),rhsMax =  -2.86495136709301E+00  3.00154110396567E-03
 cg2d: Sum(rhs),rhsMax =  -2.94238816236074E+00  3.02377917841394E-03
 cg2d: Sum(rhs),rhsMax =  -2.84207314563412E+00  3.04217203928785E-03
 cg2d: Sum(rhs),rhsMax =  -2.51902176724621E+00  3.13830802257203E-03
 cg2d: Sum(rhs),rhsMax =  -2.14123730643449E+00  3.18959320792875E-03
 cg2d: Sum(rhs),rhsMax =  -1.76835918916329E+00  3.18714929782144E-03
 cg2d: Sum(rhs),rhsMax =  -1.45590349135356E+00  3.13272226719293E-03
 cg2d: Sum(rhs),rhsMax =  -1.25508069970546E+00  3.03818414845455E-03
 cg2d: Sum(rhs),rhsMax =  -1.20874902875818E+00  2.92305989686245E-03
 cg2d: Sum(rhs),rhsMax =  -1.34034309659329E+00  2.81059303947141E-03
 cg2d: Sum(rhs),rhsMax =  -1.62624333911907E+00  2.74190563296263E-03
(PID.TID 0000.0001) Did not write pickup because writePickupAtEnd = FALSE
 --> objf_test(bi,bj)   =  0.509071981599535D-01
 --> objf_tracer(bi,bj) =  0.000000000000000D+00
 --> objf_atl(bi,bj)    =  0.000000000000000D+00
  local fc =  0.509071981599535D-01
 global fc =  0.509071981599535D-01
(PID.TID 0000.0001)  MDS_READ_FIELD: opening file: xx_depth.0000000000.001.001.data
grad-res -------------------------------
 grad-res     0    2    4    1    1    1    1    1   0.509071982062E-01 0.509071982523E-01 0.509071981600E-01
 grad-res     0    2    2    4   25    1    1    1   0.461917140109E-06 0.461980419197E-06 -.136992294036E-03
(PID.TID 0000.0001)   ADM  precision_derivative_cost =    5.09071982061516E-02
(PID.TID 0000.0001)   ADM  precision_derivative_grad =    4.61917140108749E-07
 ph-grd  ierr ---------------------------
 ph-grd  ierr =            0 , icomp =            4 , ichknum =            2
 ph-grd -->hit<--            2           2           1           1
(PID.TID 0000.0001)  MDS_READ_FIELD: opening file: adxx_depth.0000000000.001.001.data
(PID.TID 0000.0001)  MDS_READ_FIELD: opening file: xx_depth.0000000000.001.001.data
(PID.TID 0000.0001)  MDS_READ_FIELD: opening global file: noWalls.bigRidge
(PID.TID 0000.0001) INI_CG2D: CG2D normalisation factor =  1.9999999999999996E-04
(PID.TID 0000.0001) 
                     ctrl_depth_ini: ctrl update R_low,
                                     adding the control vector.
(PID.TID 0000.0001)  MDS_READ_FIELD: opening file: xx_depth.0000000000.001.001.data
(PID.TID 0000.0001) Start initial hydrostatic pressure computation
(PID.TID 0000.0001) Pressure is predetermined for buoyancyRelation OCEANIC
(PID.TID 0000.0001) 
(PID.TID 0000.0001)  MDS_READ_FIELD: opening global file: windx.sin_y
(PID.TID 0000.0001) // =======================================================
(PID.TID 0000.0001) // Model current state
(PID.TID 0000.0001) // =======================================================
(PID.TID 0000.0001) 
(PID.TID 0000.0001) SOLVE_FOR_PRESSURE: putPmEinXvector =    F
 cg2d: Sum(rhs),rhsMax =   0.00000000000000E+00  0.00000000000000E+00
 cg2d: Sum(rhs),rhsMax =  -2.49999999999996E+01  6.03492218443698E-05
 cg2d: Sum(rhs),rhsMax =  -1.81034404639061E+01  2.18766023587220E-04
 cg2d: Sum(rhs),rhsMax =  -1.54955563078392E+01  4.32479835610179E-04
 cg2d: Sum(rhs),rhsMax =  -1.41111452374742E+01  6.49958988115232E-04
 cg2d: Sum(rhs),rhsMax =  -1.31144322168414E+01  8.30737103869043E-04
 cg2d: Sum(rhs),rhsMax =  -1.21209089990130E+01  9.52510664600612E-04
 cg2d: Sum(rhs),rhsMax =  -1.07124742365900E+01  1.02806631169178E-03
 cg2d: Sum(rhs),rhsMax =  -7.41375936567256E+00  1.27086596350872E-03
 cg2d: Sum(rhs),rhsMax =  -4.70217533306690E+00  1.51019014141041E-03
 cg2d: Sum(rhs),rhsMax =  -2.72440685776769E+00  1.65833738400140E-03
 cg2d: Sum(rhs),rhsMax =  -1.27958668936748E+00  1.70565508968177E-03
 cg2d: Sum(rhs),rhsMax =  -3.29564698703101E-01  1.66071960808175E-03
 cg2d: Sum(rhs),rhsMax =   5.21320406757053E-02  1.54812756400042E-03
 cg2d: Sum(rhs),rhsMax =  -2.86625373744573E-01  1.40338816364604E-03
 cg2d: Sum(rhs),rhsMax =  -1.30315843159290E+00  1.44268599906038E-03
 cg2d: Sum(rhs),rhsMax =  -2.68067689816527E+00  1.50836886893674E-03
 cg2d: Sum(rhs),rhsMax =  -4.07407452556901E+00  1.58424367217408E-03
 cg2d: Sum(rhs),rhsMax =  -5.18272346896872E+00  1.66593593208204E-03
 cg2d: Sum(rhs),rhsMax =  -5.80990597046537E+00  1.74846175724678E-03
 cg2d: Sum(rhs),rhsMax =  -5.87740626339484E+00  1.82725971561977E-03
 cg2d: Sum(rhs),rhsMax =  -5.41358310292029E+00  1.89900435037026E-03
 cg2d: Sum(rhs),rhsMax =  -4.53080675925767E+00  1.96213934873475E-03
 cg2d: Sum(rhs),rhsMax =  -3.22587899064012E+00  2.12611202541840E-03
 cg2d: Sum(rhs),rhsMax =  -2.04447211895371E+00  2.24837953710413E-03
 cg2d: Sum(rhs),rhsMax =  -1.10818137201627E+00  2.30404049160581E-03
 cg2d: Sum(rhs),rhsMax =  -4.90484879129390E-01  2.29576532465555E-03
 cg2d: Sum(rhs),rhsMax =  -2.61247062260990E-01  2.23814842280433E-03
 cg2d: Sum(rhs),rhsMax =  -4.50921966428677E-01  2.26266907167755E-03
 cg2d: Sum(rhs),rhsMax =  -1.00469610324228E+00  2.31946123266092E-03
 cg2d: Sum(rhs),rhsMax =  -1.78565330999180E+00  2.37599941822351E-03
 cg2d: Sum(rhs),rhsMax =  -2.62429308288260E+00  2.42805543664949E-03
 cg2d: Sum(rhs),rhsMax =  -3.35748486042438E+00  2.47123045296533E-03
 cg2d: Sum(rhs),rhsMax =  -3.85508917103121E+00  2.50195598595293E-03
 cg2d: Sum(rhs),rhsMax =  -4.03589977421442E+00  2.51830322790746E-03
 cg2d: Sum(rhs),rhsMax =  -3.87512847366998E+00  2.52047519328720E-03
 cg2d: Sum(rhs),rhsMax =  -3.40600368024386E+00  2.51092921977443E-03
 cg2d: Sum(rhs),rhsMax =  -2.61682443410911E+00  2.58874086823085E-03
 cg2d: Sum(rhs),rhsMax =  -1.83238712105171E+00  2.61669729411625E-03
 cg2d: Sum(rhs),rhsMax =  -1.17513337916734E+00  2.56005945626717E-03
 cg2d: Sum(rhs),rhsMax =  -7.11994613788486E-01  2.47855829722440E-03
 cg2d: Sum(rhs),rhsMax =  -5.26422145495771E-01  2.47042092631001E-03
 cg2d: Sum(rhs),rhsMax =  -6.78930209281084E-01  2.49676870390639E-03
 cg2d: Sum(rhs),rhsMax =  -1.12673721582949E+00  2.53652611497845E-03
 cg2d: Sum(rhs),rhsMax =  -1.75981625060823E+00  2.58504763878418E-03
 cg2d: Sum(rhs),rhsMax =  -2.43940635608011E+00  2.63568090271550E-03
 cg2d: Sum(rhs),rhsMax =  -3.03203009355298E+00  2.68092813808283E-03
 cg2d: Sum(rhs),rhsMax =  -3.40991312727148E+00  2.73286303057722E-03
 cg2d: Sum(rhs),rhsMax =  -3.48046024128371E+00  2.80943921505871E-03
 cg2d: Sum(rhs),rhsMax =  -3.32063073889245E+00  2.84054007782325E-03
 cg2d: Sum(rhs),rhsMax =  -2.96079448207368E+00  2.82589056711950E-03
 cg2d: Sum(rhs),rhsMax =  -2.32992811030151E+00  2.92147974349186E-03
 cg2d: Sum(rhs),rhsMax =  -1.72242455878767E+00  2.94384962469885E-03
 cg2d: Sum(rhs),rhsMax =  -1.21221903114366E+00  2.89157779418206E-03
 cg2d: Sum(rhs),rhsMax =  -8.69698387227235E-01  2.78046456997049E-03
 cg2d: Sum(rhs),rhsMax =  -7.64867796529030E-01  2.63730949567636E-03
 cg2d: Sum(rhs),rhsMax =  -9.31747842306785E-01  2.54529701654342E-03
 cg2d: Sum(rhs),rhsMax =  -1.31074338416124E+00  2.59464766850186E-03
 cg2d: Sum(rhs),rhsMax =  -1.82960843070708E+00  2.67470086451562E-03
 cg2d: Sum(rhs),rhsMax =  -2.36415409483043E+00  2.77096210449762E-03
 cg2d: Sum(rhs),rhsMax =  -2.80794780020520E+00  2.86583704344234E-03
 cg2d: Sum(rhs),rhsMax =  -3.09076538638530E+00  2.94225352413498E-03
 cg2d: Sum(rhs),rhsMax =  -3.17911024552717E+00  2.98708405258176E-03
 cg2d: Sum(rhs),rhsMax =  -3.06968981297196E+00  2.99369700103531E-03
 cg2d: Sum(rhs),rhsMax =  -2.74200030703954E+00  3.00868115002899E-03
 cg2d: Sum(rhs),rhsMax =  -2.22987018193096E+00  3.08320495481943E-03
 cg2d: Sum(rhs),rhsMax =  -1.72892383778452E+00  3.09216601564155E-03
 cg2d: Sum(rhs),rhsMax =  -1.30661125472945E+00  3.03707923175981E-03
 cg2d: Sum(rhs),rhsMax =  -1.02724586721936E+00  2.93201253828044E-03
 cg2d: Sum(rhs),rhsMax =  -9.49612072821993E-01  2.80059567605822E-03
 cg2d: Sum(rhs),rhsMax =  -1.10546680782755E+00  2.68802009974059E-03
 cg2d: Sum(rhs),rhsMax =  -1.41911845354512E+00  2.73183501908970E-03
 cg2d: Sum(rhs),rhsMax =  -1.85263652193346E+00  2.80075122028797E-03
 cg2d: Sum(rhs),rhsMax =  -2.30607105541442E+00  2.88121982327299E-03
 cg2d: Sum(rhs),rhsMax =  -2.69038333611298E+00  2.95745896562610E-03
 cg2d: Sum(rhs),rhsMax =  -2.94313285778603E+00  3.01465307589503E-03
 cg2d: Sum(rhs),rhsMax =  -3.03123924662985E+00  3.04190023800454E-03
 cg2d: Sum(rhs),rhsMax =  -2.94785322901873E+00  3.03433138056480E-03
 cg2d: Sum(rhs),rhsMax =  -2.61356655207964E+00  3.10365976739637E-03
 cg2d: Sum(rhs),rhsMax =  -2.18161316990474E+00  3.16115503659279E-03
 cg2d: Sum(rhs),rhsMax =  -1.75526122928071E+00  3.15966312145002E-03
 cg2d: Sum(rhs),rhsMax =  -1.39603742135924E+00  3.10114910930127E-03
 cg2d: Sum(rhs),rhsMax =  -1.16177138445488E+00  2.99876544208213E-03
 cg2d: Sum(rhs),rhsMax =  -1.10293745357695E+00  2.87411082029906E-03
 cg2d: Sum(rhs),rhsMax =  -1.24975132275378E+00  2.75286353285761E-03
 cg2d: Sum(rhs),rhsMax =  -1.53840868148950E+00  2.75098213510828E-03
 cg2d: Sum(rhs),rhsMax =  -1.91301872181229E+00  2.81271665965219E-03
 cg2d: Sum(rhs),rhsMax =  -2.30705940974513E+00  2.88449377973140E-03
 cg2d: Sum(rhs),rhsMax =  -2.64297554339977E+00  2.95188722351821E-03
 cg2d: Sum(rhs),rhsMax =  -2.86495131004956E+00  3.00154115385599E-03
 cg2d: Sum(rhs),rhsMax =  -2.94238810344644E+00  3.02377922954911E-03
 cg2d: Sum(rhs),rhsMax =  -2.84207312203352E+00  3.04217205494073E-03
 cg2d: Sum(rhs),rhsMax =  -2.51902174563138E+00  3.13830803873292E-03
 cg2d: Sum(rhs),rhsMax =  -2.14123728672698E+00  3.18959322465492E-03
 cg2d: Sum(rhs),rhsMax =  -1.76835917106604E+00  3.18714931519162E-03
 cg2d: Sum(rhs),rhsMax =  -1.45590347439771E+00  3.13272228529461E-03
 cg2d: Sum(rhs),rhsMax =  -1.25508068321754E+00  3.03818416736973E-03
 cg2d: Sum(rhs),rhsMax =  -1.20874901179129E+00  2.92305991665504E-03
 cg2d: Sum(rhs),rhsMax =  -1.34034307792814E+00  2.81059306017825E-03
 cg2d: Sum(rhs),rhsMax =  -1.62624329350268E+00  2.74190569542412E-03
(PID.TID 0000.0001) Did not write pickup because writePickupAtEnd = FALSE
 --> objf_test(bi,bj)   =  0.509071982379660D-01
 --> objf_tracer(bi,bj) =  0.000000000000000D+00
 --> objf_atl(bi,bj)    =  0.000000000000000D+00
  local fc =  0.509071982379660D-01
 global fc =  0.509071982379660D-01
 ph-check fcpertplus =   5.09071982379660157E-002
(PID.TID 0000.0001)  MDS_READ_FIELD: opening file: xx_depth.0000000000.001.001.data
 ph-check fcpertminus =   5.09071982061515965E-002
(PID.TID 0000.0001)  MDS_READ_FIELD: opening file: xx_depth.0000000000.001.001.data
(PID.TID 0000.0001)  MDS_READ_FIELD: opening global file: noWalls.bigRidge
(PID.TID 0000.0001) INI_CG2D: CG2D normalisation factor =  1.9999999999999996E-04
(PID.TID 0000.0001) 
                     ctrl_depth_ini: ctrl update R_low,
                                     adding the control vector.
(PID.TID 0000.0001)  MDS_READ_FIELD: opening file: xx_depth.0000000000.001.001.data
(PID.TID 0000.0001) Start initial hydrostatic pressure computation
(PID.TID 0000.0001) Pressure is predetermined for buoyancyRelation OCEANIC
(PID.TID 0000.0001) 
(PID.TID 0000.0001)  MDS_READ_FIELD: opening global file: windx.sin_y
(PID.TID 0000.0001) // =======================================================
(PID.TID 0000.0001) // Model current state
(PID.TID 0000.0001) // =======================================================
(PID.TID 0000.0001) 
(PID.TID 0000.0001) SOLVE_FOR_PRESSURE: putPmEinXvector =    F
 cg2d: Sum(rhs),rhsMax =   0.00000000000000E+00  0.00000000000000E+00
 cg2d: Sum(rhs),rhsMax =  -2.49999999999996E+01  6.03492218443698E-05
 cg2d: Sum(rhs),rhsMax =  -1.81034404639061E+01  2.18766023587220E-04
 cg2d: Sum(rhs),rhsMax =  -1.54955562585904E+01  4.32479836984710E-04
 cg2d: Sum(rhs),rhsMax =  -1.41111452284252E+01  6.49958988531592E-04
 cg2d: Sum(rhs),rhsMax =  -1.31144322496810E+01  8.30737101787740E-04
 cg2d: Sum(rhs),rhsMax =  -1.21209090660646E+01  9.52510659329972E-04
 cg2d: Sum(rhs),rhsMax =  -1.07124742378238E+01  1.02806631157236E-03
 cg2d: Sum(rhs),rhsMax =  -7.41375936764164E+00  1.27086596317270E-03
 cg2d: Sum(rhs),rhsMax =  -4.70217533604120E+00  1.51019014046577E-03
 cg2d: Sum(rhs),rhsMax =  -2.72440686079070E+00  1.65833738219883E-03
 cg2d: Sum(rhs),rhsMax =  -1.27958669157865E+00  1.70565508686091E-03
 cg2d: Sum(rhs),rhsMax =  -3.29564699601970E-01  1.66071960422604E-03
 cg2d: Sum(rhs),rhsMax =   5.21320406551425E-02  1.54812755927222E-03
 cg2d: Sum(rhs),rhsMax =  -2.86625375056490E-01  1.40338815838507E-03
 cg2d: Sum(rhs),rhsMax =  -1.30315843581079E+00  1.44268599469698E-03
 cg2d: Sum(rhs),rhsMax =  -2.68067690782323E+00  1.50836886368836E-03
 cg2d: Sum(rhs),rhsMax =  -4.07407454146183E+00  1.58424366615730E-03
 cg2d: Sum(rhs),rhsMax =  -5.18272349000991E+00  1.66593592549959E-03
 cg2d: Sum(rhs),rhsMax =  -5.80990599409614E+00  1.74846175036877E-03
 cg2d: Sum(rhs),rhsMax =  -5.87740628655638E+00  1.82725970875140E-03
 cg2d: Sum(rhs),rhsMax =  -5.41358312306557E+00  1.89900434381127E-03
 cg2d: Sum(rhs),rhsMax =  -4.53080677501342E+00  1.96213934273708E-03
 cg2d: Sum(rhs),rhsMax =  -3.22587898752967E+00  2.12611202899078E-03
 cg2d: Sum(rhs),rhsMax =  -2.04447211871110E+00  2.24837954041361E-03
 cg2d: Sum(rhs),rhsMax =  -1.10818137410228E+00  2.30404049414378E-03
 cg2d: Sum(rhs),rhsMax =  -4.90484882763352E-01  2.29576532609839E-03
 cg2d: Sum(rhs),rhsMax =  -2.61247066906038E-01  2.23814842307484E-03
 cg2d: Sum(rhs),rhsMax =  -4.50921972214534E-01  2.26266906889267E-03
 cg2d: Sum(rhs),rhsMax =  -1.00469611019851E+00  2.31946122968682E-03
 cg2d: Sum(rhs),rhsMax =  -1.78565331858341E+00  2.37599941486423E-03
 cg2d: Sum(rhs),rhsMax =  -2.62429309350063E+00  2.42805543280035E-03
 cg2d: Sum(rhs),rhsMax =  -3.35748487319247E+00  2.47123044862960E-03
 cg2d: Sum(rhs),rhsMax =  -3.85508918565743E+00  2.50195598123940E-03
 cg2d: Sum(rhs),rhsMax =  -4.03589979001160E+00  2.51830322300988E-03
 cg2d: Sum(rhs),rhsMax =  -3.87512848976104E+00  2.52047518844942E-03
 cg2d: Sum(rhs),rhsMax =  -3.40600369586825E+00  2.51092921524807E-03
 cg2d: Sum(rhs),rhsMax =  -2.61682443216083E+00  2.58874088009772E-03
 cg2d: Sum(rhs),rhsMax =  -1.83238712295976E+00  2.61669730686133E-03
 cg2d: Sum(rhs),rhsMax =  -1.17513338503086E+00  2.56005946966658E-03
 cg2d: Sum(rhs),rhsMax =  -7.11994624202404E-01  2.47855830755221E-03
 cg2d: Sum(rhs),rhsMax =  -5.26422160143215E-01  2.47042092500783E-03
 cg2d: Sum(rhs),rhsMax =  -6.78930224627925E-01  2.49676870301240E-03
 cg2d: Sum(rhs),rhsMax =  -1.12673723181330E+00  2.53652611429532E-03
 cg2d: Sum(rhs),rhsMax =  -1.75981626718674E+00  2.58504763812601E-03
 cg2d: Sum(rhs),rhsMax =  -2.43940637331334E+00  2.63568090193694E-03
 cg2d: Sum(rhs),rhsMax =  -3.03203011156644E+00  2.68092813709771E-03
 cg2d: Sum(rhs),rhsMax =  -3.40991310980655E+00  2.73286305839238E-03
 cg2d: Sum(rhs),rhsMax =  -3.48046022343265E+00  2.80943924355279E-03
 cg2d: Sum(rhs),rhsMax =  -3.32063072286706E+00  2.84054010690781E-03
 cg2d: Sum(rhs),rhsMax =  -2.96079446989355E+00  2.82589059672766E-03
 cg2d: Sum(rhs),rhsMax =  -2.32992811180153E+00  2.92147976545699E-03
 cg2d: Sum(rhs),rhsMax =  -1.72242456512981E+00  2.94384964750741E-03
 cg2d: Sum(rhs),rhsMax =  -1.21221904215146E+00  2.89157781772218E-03
 cg2d: Sum(rhs),rhsMax =  -8.69698402217847E-01  2.78046459415204E-03
 cg2d: Sum(rhs),rhsMax =  -7.64867813963527E-01  2.63730952044655E-03
 cg2d: Sum(rhs),rhsMax =  -9.31747856533557E-01  2.54529704954843E-03
 cg2d: Sum(rhs),rhsMax =  -1.31074339367019E+00  2.59464770217574E-03
 cg2d: Sum(rhs),rhsMax =  -1.82960843359385E+00  2.67470089882054E-03
 cg2d: Sum(rhs),rhsMax =  -2.36415409108577E+00  2.77096213935899E-03
 cg2d: Sum(rhs),rhsMax =  -2.80794779126457E+00  2.86583707875991E-03
 cg2d: Sum(rhs),rhsMax =  -3.09076537443768E+00  2.94225355980030E-03
 cg2d: Sum(rhs),rhsMax =  -3.17911023298024E+00  2.98708408849840E-03
 cg2d: Sum(rhs),rhsMax =  -3.06968980216173E+00  2.99369703713731E-03
 cg2d: Sum(rhs),rhsMax =  -2.74200030572827E+00  3.00868118077154E-03
 cg2d: Sum(rhs),rhsMax =  -2.22987018608872E+00  3.08320498599973E-03
 cg2d: Sum(rhs),rhsMax =  -1.72892384745057E+00  3.09216604716194E-03
 cg2d: Sum(rhs),rhsMax =  -1.30661126949390E+00  3.03707926355340E-03
 cg2d: Sum(rhs),rhsMax =  -1.02724588609263E+00  2.93201257032372E-03
 cg2d: Sum(rhs),rhsMax =  -9.49612093973158E-01  2.80059570837469E-03
 cg2d: Sum(rhs),rhsMax =  -1.10546682594697E+00  2.68802013831836E-03
 cg2d: Sum(rhs),rhsMax =  -1.41911846708920E+00  2.73183505821980E-03
 cg2d: Sum(rhs),rhsMax =  -1.85263652910969E+00  2.80075125990421E-03
 cg2d: Sum(rhs),rhsMax =  -2.30607105614051E+00  2.88121986326091E-03
 cg2d: Sum(rhs),rhsMax =  -2.69038333167251E+00  2.95745900583987E-03
 cg2d: Sum(rhs),rhsMax =  -2.94313285024572E+00  3.01465311618085E-03
 cg2d: Sum(rhs),rhsMax =  -3.03123923834222E+00  3.04190027822616E-03
 cg2d: Sum(rhs),rhsMax =  -2.94785322230657E+00  3.03433142062597E-03
 cg2d: Sum(rhs),rhsMax =  -2.61356655318220E+00  3.10365980392204E-03
 cg2d: Sum(rhs),rhsMax =  -2.18161317632172E+00  3.16115507319605E-03
 cg2d: Sum(rhs),rhsMax =  -1.75526124107601E+00  3.15966315799476E-03
 cg2d: Sum(rhs),rhsMax =  -1.39603743806479E+00  3.10114914569416E-03
 cg2d: Sum(rhs),rhsMax =  -1.16177140498671E+00  2.99876547828608E-03
 cg2d: Sum(rhs),rhsMax =  -1.10293747606750E+00  2.87411085633600E-03
 cg2d: Sum(rhs),rhsMax =  -1.24975134451687E+00  2.75286356880007E-03
 cg2d: Sum(rhs),rhsMax =  -1.53840869692234E+00  2.75098217573327E-03
 cg2d: Sum(rhs),rhsMax =  -1.91301873121772E+00  2.81271670060313E-03
 cg2d: Sum(rhs),rhsMax =  -2.30705941299859E+00  2.88449382092869E-03
 cg2d: Sum(rhs),rhsMax =  -2.64297554161381E+00  2.95188726484511E-03
 cg2d: Sum(rhs),rhsMax =  -2.86495130507758E+00  3.00154119518056E-03
 cg2d: Sum(rhs),rhsMax =  -2.94238809743838E+00  3.02377927074858E-03
 cg2d: Sum(rhs),rhsMax =  -2.84207312103676E+00  3.04217209216726E-03
 cg2d: Sum(rhs),rhsMax =  -2.51902174844634E+00  3.13830807595797E-03
 cg2d: Sum(rhs),rhsMax =  -2.14123729397919E+00  3.18959326173404E-03
 cg2d: Sum(rhs),rhsMax =  -1.76835918279321E+00  3.18714935199340E-03
 cg2d: Sum(rhs),rhsMax =  -1.45590349012029E+00  3.13272232172119E-03
 cg2d: Sum(rhs),rhsMax =  -1.25508070189261E+00  3.03818420337041E-03
 cg2d: Sum(rhs),rhsMax =  -1.20874903172568E+00  2.92305995223025E-03
 cg2d: Sum(rhs),rhsMax =  -1.34034309682436E+00  2.81059309537363E-03
 cg2d: Sum(rhs),rhsMax =  -1.62624330541289E+00  2.74190573619101E-03
(PID.TID 0000.0001) Did not write pickup because writePickupAtEnd = FALSE
 --> objf_test(bi,bj)   =  0.509071981743371D-01
 --> objf_tracer(bi,bj) =  0.000000000000000D+00
 --> objf_atl(bi,bj)    =  0.000000000000000D+00
  local fc =  0.509071981743371D-01
 global fc =  0.509071981743371D-01
(PID.TID 0000.0001)  MDS_READ_FIELD: opening file: xx_depth.0000000000.001.001.data
grad-res -------------------------------
 grad-res     0    3    2    2    1    1    1    1   0.509071982062E-01 0.509071982380E-01 0.509071981743E-01
 grad-res     0    3    3    7   25    1    1    1   0.318144600988E-06 0.318144781353E-06 -.566926443790E-06
(PID.TID 0000.0001)   ADM  precision_derivative_cost =    5.09071982061516E-02
(PID.TID 0000.0001)   ADM  precision_derivative_grad =    3.18144600988138E-07
 ph-grd  ierr ---------------------------
 ph-grd  ierr =            0 , icomp =            7 , ichknum =            3
 ph-grd -->hit<--            5           2           1           1
(PID.TID 0000.0001)  MDS_READ_FIELD: opening file: adxx_depth.0000000000.001.001.data
(PID.TID 0000.0001)  MDS_READ_FIELD: opening file: xx_depth.0000000000.001.001.data
(PID.TID 0000.0001)  MDS_READ_FIELD: opening global file: noWalls.bigRidge
(PID.TID 0000.0001) INI_CG2D: CG2D normalisation factor =  1.9999999999999996E-04
(PID.TID 0000.0001) 
                     ctrl_depth_ini: ctrl update R_low,
                                     adding the control vector.
(PID.TID 0000.0001)  MDS_READ_FIELD: opening file: xx_depth.0000000000.001.001.data
(PID.TID 0000.0001) Start initial hydrostatic pressure computation
(PID.TID 0000.0001) Pressure is predetermined for buoyancyRelation OCEANIC
(PID.TID 0000.0001) 
(PID.TID 0000.0001)  MDS_READ_FIELD: opening global file: windx.sin_y
(PID.TID 0000.0001) // =======================================================
(PID.TID 0000.0001) // Model current state
(PID.TID 0000.0001) // =======================================================
(PID.TID 0000.0001) 
(PID.TID 0000.0001) SOLVE_FOR_PRESSURE: putPmEinXvector =    F
 cg2d: Sum(rhs),rhsMax =   0.00000000000000E+00  0.00000000000000E+00
 cg2d: Sum(rhs),rhsMax =  -2.49999999999996E+01  6.03492218443698E-05
 cg2d: Sum(rhs),rhsMax =  -1.81034404639061E+01  2.18766023587220E-04
 cg2d: Sum(rhs),rhsMax =  -1.54955562832148E+01  4.32479836297444E-04
 cg2d: Sum(rhs),rhsMax =  -1.41111452328285E+01  6.49958988329015E-04
 cg2d: Sum(rhs),rhsMax =  -1.31144322332375E+01  8.30737102830122E-04
 cg2d: Sum(rhs),rhsMax =  -1.21209090327092E+01  9.52510661952575E-04
 cg2d: Sum(rhs),rhsMax =  -1.07124742373494E+01  1.02806631161965E-03
 cg2d: Sum(rhs),rhsMax =  -7.41375936669902E+00  1.27086596333557E-03
 cg2d: Sum(rhs),rhsMax =  -4.70217533460681E+00  1.51019014092291E-03
 cg2d: Sum(rhs),rhsMax =  -2.72440685931945E+00  1.65833738307113E-03
 cg2d: Sum(rhs),rhsMax =  -1.27958669047720E+00  1.70565508822643E-03
 cg2d: Sum(rhs),rhsMax =  -3.29564699098986E-01  1.66071960609364E-03
 cg2d: Sum(rhs),rhsMax =   5.21320407888896E-02  1.54812756156516E-03
 cg2d: Sum(rhs),rhsMax =  -2.86625374212942E-01  1.40338816094232E-03
 cg2d: Sum(rhs),rhsMax =  -1.30315843461396E+00  1.44268599556540E-03
 cg2d: Sum(rhs),rhsMax =  -2.68067690628688E+00  1.50836886426707E-03
 cg2d: Sum(rhs),rhsMax =  -4.07407454041402E+00  1.58424366632504E-03
 cg2d: Sum(rhs),rhsMax =  -5.18272349028124E+00  1.66593592517241E-03
 cg2d: Sum(rhs),rhsMax =  -5.80990599603077E+00  1.74846174951354E-03
 cg2d: Sum(rhs),rhsMax =  -5.87740628982532E+00  1.82725970739107E-03
 cg2d: Sum(rhs),rhsMax =  -5.41358312682080E+00  1.89900434202048E-03
 cg2d: Sum(rhs),rhsMax =  -4.53080677824381E+00  1.96213934062877E-03
 cg2d: Sum(rhs),rhsMax =  -3.22587898734685E+00  2.12611202788196E-03
 cg2d: Sum(rhs),rhsMax =  -2.04447211734013E+00  2.24837953957371E-03
 cg2d: Sum(rhs),rhsMax =  -1.10818137178744E+00  2.30404049382421E-03
 cg2d: Sum(rhs),rhsMax =  -4.90484879813462E-01  2.29576532645685E-03
 cg2d: Sum(rhs),rhsMax =  -2.61247063432842E-01  2.23814842414657E-03
 cg2d: Sum(rhs),rhsMax =  -4.50921968936241E-01  2.26266906681831E-03
 cg2d: Sum(rhs),rhsMax =  -1.00469610716668E+00  2.31946122756827E-03
 cg2d: Sum(rhs),rhsMax =  -1.78565331612278E+00  2.37599941258487E-03
 cg2d: Sum(rhs),rhsMax =  -2.62429309188771E+00  2.42805543023995E-03
 cg2d: Sum(rhs),rhsMax =  -3.35748487260245E+00  2.47123044568521E-03
 cg2d: Sum(rhs),rhsMax =  -3.85508918606615E+00  2.50195597784216E-03
 cg2d: Sum(rhs),rhsMax =  -4.03589979111612E+00  2.51830321913483E-03
 cg2d: Sum(rhs),rhsMax =  -3.87512849097932E+00  2.52047518411692E-03
 cg2d: Sum(rhs),rhsMax =  -3.40600369644540E+00  2.51092921051717E-03
 cg2d: Sum(rhs),rhsMax =  -2.61682442592761E+00  2.58874088026959E-03
 cg2d: Sum(rhs),rhsMax =  -1.83238711651801E+00  2.61669730691514E-03
 cg2d: Sum(rhs),rhsMax =  -1.17513337799414E+00  2.56005946981862E-03
 cg2d: Sum(rhs),rhsMax =  -7.11994616975152E-01  2.47855830620588E-03
 cg2d: Sum(rhs),rhsMax =  -5.26422153296374E-01  2.47042091949450E-03
 cg2d: Sum(rhs),rhsMax =  -6.78930217874285E-01  2.49676869745978E-03
 cg2d: Sum(rhs),rhsMax =  -1.12673722591383E+00  2.53652610867680E-03
 cg2d: Sum(rhs),rhsMax =  -1.75981626265222E+00  2.58504763239771E-03
 cg2d: Sum(rhs),rhsMax =  -2.43940637034873E+00  2.63568089605001E-03
 cg2d: Sum(rhs),rhsMax =  -3.03203011007928E+00  2.68092813101025E-03
 cg2d: Sum(rhs),rhsMax =  -3.40991311653698E+00  2.73286304635408E-03
 cg2d: Sum(rhs),rhsMax =  -3.48046022813213E+00  2.80943923319331E-03
 cg2d: Sum(rhs),rhsMax =  -3.32063072457174E+00  2.84054009850292E-03
 cg2d: Sum(rhs),rhsMax =  -2.96079446855508E+00  2.82589059013053E-03
 cg2d: Sum(rhs),rhsMax =  -2.32992810174434E+00  2.92147976794273E-03
 cg2d: Sum(rhs),rhsMax =  -1.72242455548480E+00  2.94384965013618E-03
 cg2d: Sum(rhs),rhsMax =  -1.21221903260863E+00  2.89157782060634E-03
 cg2d: Sum(rhs),rhsMax =  -8.69698392489546E-01  2.78046459738816E-03
 cg2d: Sum(rhs),rhsMax =  -7.64867803717500E-01  2.63730952409962E-03
 cg2d: Sum(rhs),rhsMax =  -9.31747850358574E-01  2.54529704061616E-03
 cg2d: Sum(rhs),rhsMax =  -1.31074338969472E+00  2.59464769199936E-03
 cg2d: Sum(rhs),rhsMax =  -1.82960843240027E+00  2.67470088795296E-03
 cg2d: Sum(rhs),rhsMax =  -2.36415409227923E+00  2.77096212851231E-03
 cg2d: Sum(rhs),rhsMax =  -2.80794779368035E+00  2.86583706864423E-03
 cg2d: Sum(rhs),rhsMax =  -3.09076537672882E+00  2.94225355096568E-03
 cg2d: Sum(rhs),rhsMax =  -3.17911023415919E+00  2.98708408121362E-03
 cg2d: Sum(rhs),rhsMax =  -3.06968980185708E+00  2.99369703133079E-03
 cg2d: Sum(rhs),rhsMax =  -2.74200029333046E+00  3.00868118785613E-03
 cg2d: Sum(rhs),rhsMax =  -2.22987017502671E+00  3.08320499365210E-03
 cg2d: Sum(rhs),rhsMax =  -1.72892383756307E+00  3.09216605547369E-03
 cg2d: Sum(rhs),rhsMax =  -1.30661126056571E+00  3.03707927259300E-03
 cg2d: Sum(rhs),rhsMax =  -1.02724587778685E+00  2.93201258012347E-03
 cg2d: Sum(rhs),rhsMax =  -9.49612085720535E-01  2.80059571892523E-03
 cg2d: Sum(rhs),rhsMax =  -1.10546682573385E+00  2.68802012826296E-03
 cg2d: Sum(rhs),rhsMax =  -1.41911846911256E+00  2.73183504723645E-03
 cg2d: Sum(rhs),rhsMax =  -1.85263653357532E+00  2.80075124871638E-03
 cg2d: Sum(rhs),rhsMax =  -2.30607106246579E+00  2.88121985266431E-03
 cg2d: Sum(rhs),rhsMax =  -2.69038333874832E+00  2.95745899653949E-03
 cg2d: Sum(rhs),rhsMax =  -2.94313285696037E+00  3.01465310864529E-03
 cg2d: Sum(rhs),rhsMax =  -3.03123924402770E+00  3.04190027258866E-03
 cg2d: Sum(rhs),rhsMax =  -2.94785322692068E+00  3.03433141665304E-03
 cg2d: Sum(rhs),rhsMax =  -2.61356654146139E+00  3.10365981948565E-03
 cg2d: Sum(rhs),rhsMax =  -2.18161316697962E+00  3.16115508959872E-03
 cg2d: Sum(rhs),rhsMax =  -1.75526123402549E+00  3.15966317535454E-03
 cg2d: Sum(rhs),rhsMax =  -1.39603743306579E+00  3.10114916409574E-03
 cg2d: Sum(rhs),rhsMax =  -1.16177140154193E+00  2.99876549776697E-03
 cg2d: Sum(rhs),rhsMax =  -1.10293747326450E+00  2.87411087688174E-03
 cg2d: Sum(rhs),rhsMax =  -1.24975134095924E+00  2.75286359034922E-03
 cg2d: Sum(rhs),rhsMax =  -1.53840871019336E+00  2.75098216494772E-03
 cg2d: Sum(rhs),rhsMax =  -1.91301874697236E+00  2.81271668942099E-03
 cg2d: Sum(rhs),rhsMax =  -2.30705943065303E+00  2.88449381017200E-03
 cg2d: Sum(rhs),rhsMax =  -2.64297556017479E+00  2.95188725524068E-03
 cg2d: Sum(rhs),rhsMax =  -2.86495132358516E+00  3.00154118721817E-03
 cg2d: Sum(rhs),rhsMax =  -2.94238811535281E+00  3.02377926458712E-03
 cg2d: Sum(rhs),rhsMax =  -2.84207310914257E+00  3.04217211871228E-03
 cg2d: Sum(rhs),rhsMax =  -2.51902173999469E+00  3.13830810331041E-03
 cg2d: Sum(rhs),rhsMax =  -2.14123728923353E+00  3.18959329001125E-03
 cg2d: Sum(rhs),rhsMax =  -1.76835918171731E+00  3.18714938130612E-03
 cg2d: Sum(rhs),rhsMax =  -1.45590349239356E+00  3.13272235215449E-03
 cg2d: Sum(rhs),rhsMax =  -1.25508070679542E+00  3.03818423497009E-03
 cg2d: Sum(rhs),rhsMax =  -1.20874903796774E+00  2.92305998499720E-03
 cg2d: Sum(rhs),rhsMax =  -1.34034310249531E+00  2.81059312926710E-03
 cg2d: Sum(rhs),rhsMax =  -1.62624333572610E+00  2.74190572512227E-03
(PID.TID 0000.0001) Did not write pickup because writePickupAtEnd = FALSE
 --> objf_test(bi,bj)   =  0.509071983152976D-01
 --> objf_tracer(bi,bj) =  0.000000000000000D+00
 --> objf_atl(bi,bj)    =  0.000000000000000D+00
  local fc =  0.509071983152976D-01
 global fc =  0.509071983152976D-01
 ph-check fcpertplus =   5.09071983152975666E-002
(PID.TID 0000.0001)  MDS_READ_FIELD: opening file: xx_depth.0000000000.001.001.data
 ph-check fcpertminus =   5.09071982061515965E-002
(PID.TID 0000.0001)  MDS_READ_FIELD: opening file: xx_depth.0000000000.001.001.data
(PID.TID 0000.0001)  MDS_READ_FIELD: opening global file: noWalls.bigRidge
(PID.TID 0000.0001) INI_CG2D: CG2D normalisation factor =  1.9999999999999996E-04
(PID.TID 0000.0001) 
                     ctrl_depth_ini: ctrl update R_low,
                                     adding the control vector.
(PID.TID 0000.0001)  MDS_READ_FIELD: opening file: xx_depth.0000000000.001.001.data
(PID.TID 0000.0001) Start initial hydrostatic pressure computation
(PID.TID 0000.0001) Pressure is predetermined for buoyancyRelation OCEANIC
(PID.TID 0000.0001) 
(PID.TID 0000.0001)  MDS_READ_FIELD: opening global file: windx.sin_y
(PID.TID 0000.0001) // =======================================================
(PID.TID 0000.0001) // Model current state
(PID.TID 0000.0001) // =======================================================
(PID.TID 0000.0001) 
(PID.TID 0000.0001) SOLVE_FOR_PRESSURE: putPmEinXvector =    F
 cg2d: Sum(rhs),rhsMax =   0.00000000000000E+00  0.00000000000000E+00
 cg2d: Sum(rhs),rhsMax =  -2.49999999999996E+01  6.03492218443698E-05
 cg2d: Sum(rhs),rhsMax =  -1.81034404639061E+01  2.18766023587220E-04
 cg2d: Sum(rhs),rhsMax =  -1.54955562832148E+01  4.32479836297444E-04
 cg2d: Sum(rhs),rhsMax =  -1.41111452330707E+01  6.49958988317814E-04
 cg2d: Sum(rhs),rhsMax =  -1.31144322332850E+01  8.30737102826651E-04
 cg2d: Sum(rhs),rhsMax =  -1.21209090323681E+01  9.52510661978028E-04
 cg2d: Sum(rhs),rhsMax =  -1.07124742370644E+01  1.02806631164449E-03
 cg2d: Sum(rhs),rhsMax =  -7.41375936661510E+00  1.27086596334588E-03
 cg2d: Sum(rhs),rhsMax =  -4.70217533450136E+00  1.51019014095327E-03
 cg2d: Sum(rhs),rhsMax =  -2.72440685923902E+00  1.65833738312907E-03
 cg2d: Sum(rhs),rhsMax =  -1.27958669046896E+00  1.70565508831628E-03
 cg2d: Sum(rhs),rhsMax =  -3.29564699206136E-01  1.66071960621415E-03
 cg2d: Sum(rhs),rhsMax =   5.21320405419119E-02  1.54812756170748E-03
 cg2d: Sum(rhs),rhsMax =  -2.86625374588168E-01  1.40338816108879E-03
 cg2d: Sum(rhs),rhsMax =  -1.30315843278977E+00  1.44268599819196E-03
 cg2d: Sum(rhs),rhsMax =  -2.68067689970164E+00  1.50836886835804E-03
 cg2d: Sum(rhs),rhsMax =  -4.07407452661688E+00  1.58424367200634E-03
 cg2d: Sum(rhs),rhsMax =  -5.18272346869739E+00  1.66593593240923E-03
 cg2d: Sum(rhs),rhsMax =  -5.80990596853079E+00  1.74846175810201E-03
 cg2d: Sum(rhs),rhsMax =  -5.87740626012593E+00  1.82725971698011E-03
 cg2d: Sum(rhs),rhsMax =  -5.41358309916506E+00  1.89900435216108E-03
 cg2d: Sum(rhs),rhsMax =  -4.53080675602733E+00  1.96213935084307E-03
 cg2d: Sum(rhs),rhsMax =  -3.22587899082299E+00  2.12611202652723E-03
 cg2d: Sum(rhs),rhsMax =  -2.04447212032475E+00  2.24837953794405E-03
 cg2d: Sum(rhs),rhsMax =  -1.10818137433119E+00  2.30404049192539E-03
 cg2d: Sum(rhs),rhsMax =  -4.90484882079353E-01  2.29576532429710E-03
 cg2d: Sum(rhs),rhsMax =  -2.61247065734262E-01  2.23814842173262E-03
 cg2d: Sum(rhs),rhsMax =  -4.50921969707042E-01  2.26266907375192E-03
 cg2d: Sum(rhs),rhsMax =  -1.00469610627417E+00  2.31946123477947E-03
 cg2d: Sum(rhs),rhsMax =  -1.78565331245249E+00  2.37599942050288E-03
 cg2d: Sum(rhs),rhsMax =  -2.62429308449559E+00  2.42805543920990E-03
 cg2d: Sum(rhs),rhsMax =  -3.35748486101446E+00  2.47123045590973E-03
 cg2d: Sum(rhs),rhsMax =  -3.85508917062255E+00  2.50195598935017E-03
 cg2d: Sum(rhs),rhsMax =  -4.03589977310997E+00  2.51830323178252E-03
 cg2d: Sum(rhs),rhsMax =  -3.87512847245176E+00  2.52047519761970E-03
 cg2d: Sum(rhs),rhsMax =  -3.40600367966679E+00  2.51092922450533E-03
 cg2d: Sum(rhs),rhsMax =  -2.61682444034240E+00  2.58874086805899E-03
 cg2d: Sum(rhs),rhsMax =  -1.83238712749355E+00  2.61669729406243E-03
 cg2d: Sum(rhs),rhsMax =  -1.17513338620414E+00  2.56005945611512E-03
 cg2d: Sum(rhs),rhsMax =  -7.11994621015828E-01  2.47855829857072E-03
 cg2d: Sum(rhs),rhsMax =  -5.26422152342698E-01  2.47042093182335E-03
 cg2d: Sum(rhs),rhsMax =  -6.78930216034802E-01  2.49676870945904E-03
 cg2d: Sum(rhs),rhsMax =  -1.12673722172904E+00  2.53652612059698E-03
 cg2d: Sum(rhs),rhsMax =  -1.75981625514285E+00  2.58504764451248E-03
 cg2d: Sum(rhs),rhsMax =  -2.43940635904478E+00  2.63568090860245E-03
 cg2d: Sum(rhs),rhsMax =  -3.03203009504020E+00  2.68092814417031E-03
 cg2d: Sum(rhs),rhsMax =  -3.40991312054113E+00  2.73286304261552E-03
 cg2d: Sum(rhs),rhsMax =  -3.48046023658435E+00  2.80943922541816E-03
 cg2d: Sum(rhs),rhsMax =  -3.32063073718783E+00  2.84054008622818E-03
 cg2d: Sum(rhs),rhsMax =  -2.96079448341224E+00  2.82589057371664E-03
 cg2d: Sum(rhs),rhsMax =  -2.32992812035880E+00  2.92147974100611E-03
 cg2d: Sum(rhs),rhsMax =  -1.72242456843275E+00  2.94384962207011E-03
 cg2d: Sum(rhs),rhsMax =  -1.21221904068657E+00  2.89157779129791E-03
 cg2d: Sum(rhs),rhsMax =  -8.69698396955632E-01  2.78046456673438E-03
 cg2d: Sum(rhs),rhsMax =  -7.64867806775164E-01  2.63730949202330E-03
 cg2d: Sum(rhs),rhsMax =  -9.31747848481871E-01  2.54529702547570E-03
 cg2d: Sum(rhs),rhsMax =  -1.31074338813681E+00  2.59464767867825E-03
 cg2d: Sum(rhs),rhsMax =  -1.82960843190074E+00  2.67470087538321E-03
 cg2d: Sum(rhs),rhsMax =  -2.36415409363705E+00  2.77096211534431E-03
 cg2d: Sum(rhs),rhsMax =  -2.80794779778950E+00  2.86583705355802E-03
 cg2d: Sum(rhs),rhsMax =  -3.09076538409425E+00  2.94225353296960E-03
 cg2d: Sum(rhs),rhsMax =  -3.17911024434828E+00  2.98708405986657E-03
 cg2d: Sum(rhs),rhsMax =  -3.06968981327671E+00  2.99369700684182E-03
 cg2d: Sum(rhs),rhsMax =  -2.74200031943742E+00  3.00868114294443E-03
 cg2d: Sum(rhs),rhsMax =  -2.22987019299307E+00  3.08320494716707E-03
 cg2d: Sum(rhs),rhsMax =  -1.72892384767211E+00  3.09216600732980E-03
 cg2d: Sum(rhs),rhsMax =  -1.30661126365774E+00  3.03707922272023E-03
 cg2d: Sum(rhs),rhsMax =  -1.02724587552524E+00  2.93201252848070E-03
 cg2d: Sum(rhs),rhsMax =  -9.49612081074713E-01  2.80059566550768E-03
 cg2d: Sum(rhs),rhsMax =  -1.10546680804076E+00  2.68802010979600E-03
 cg2d: Sum(rhs),rhsMax =  -1.41911845152186E+00  2.73183503007305E-03
 cg2d: Sum(rhs),rhsMax =  -1.85263651746792E+00  2.80075123147580E-03
 cg2d: Sum(rhs),rhsMax =  -2.30607104908922E+00  2.88121983386961E-03
 cg2d: Sum(rhs),rhsMax =  -2.69038332903728E+00  2.95745897492646E-03
 cg2d: Sum(rhs),rhsMax =  -2.94313285107146E+00  3.01465308343060E-03
 cg2d: Sum(rhs),rhsMax =  -3.03123924094445E+00  3.04190024364204E-03
 cg2d: Sum(rhs),rhsMax =  -2.94785322440472E+00  3.03433138453773E-03
 cg2d: Sum(rhs),rhsMax =  -2.61356656380053E+00  3.10365975183278E-03
 cg2d: Sum(rhs),rhsMax =  -2.18161317924691E+00  3.16115502019015E-03
 cg2d: Sum(rhs),rhsMax =  -1.75526123633133E+00  3.15966310409025E-03
 cg2d: Sum(rhs),rhsMax =  -1.39603742635836E+00  3.10114909089971E-03
 cg2d: Sum(rhs),rhsMax =  -1.16177138789978E+00  2.99876542260125E-03
 cg2d: Sum(rhs),rhsMax =  -1.10293745638007E+00  2.87411079975332E-03
 cg2d: Sum(rhs),rhsMax =  -1.24975132631152E+00  2.75286351130849E-03
 cg2d: Sum(rhs),rhsMax =  -1.53840866821860E+00  2.75098214589384E-03
 cg2d: Sum(rhs),rhsMax =  -1.91301870605777E+00  2.81271667083434E-03
 cg2d: Sum(rhs),rhsMax =  -2.30705939209080E+00  2.88449379048811E-03
 cg2d: Sum(rhs),rhsMax =  -2.64297552483890E+00  2.95188723312264E-03
 cg2d: Sum(rhs),rhsMax =  -2.86495129154211E+00  3.00154116181838E-03
 cg2d: Sum(rhs),rhsMax =  -2.94238808553213E+00  3.02377923571057E-03
 cg2d: Sum(rhs),rhsMax =  -2.84207313392781E+00  3.04217202839574E-03
 cg2d: Sum(rhs),rhsMax =  -2.51902175408314E+00  3.13830801138051E-03
 cg2d: Sum(rhs),rhsMax =  -2.14123729147277E+00  3.18959319637772E-03
 cg2d: Sum(rhs),rhsMax =  -1.76835917214204E+00  3.18714928587893E-03
 cg2d: Sum(rhs),rhsMax =  -1.45590347212456E+00  3.13272225486133E-03
 cg2d: Sum(rhs),rhsMax =  -1.25508067831487E+00  3.03818413577007E-03
 cg2d: Sum(rhs),rhsMax =  -1.20874900554936E+00  2.92305988388808E-03
 cg2d: Sum(rhs),rhsMax =  -1.34034307225732E+00  2.81059302628481E-03
 cg2d: Sum(rhs),rhsMax =  -1.62624326318961E+00  2.74190570649286E-03
(PID.TID 0000.0001) Did not write pickup because writePickupAtEnd = FALSE
 --> objf_test(bi,bj)   =  0.509071980970055D-01
 --> objf_tracer(bi,bj) =  0.000000000000000D+00
 --> objf_atl(bi,bj)    =  0.000000000000000D+00
  local fc =  0.509071980970055D-01
 global fc =  0.509071980970055D-01
(PID.TID 0000.0001)  MDS_READ_FIELD: opening file: xx_depth.0000000000.001.001.data
grad-res -------------------------------
 grad-res     0    4    5    2    1    1    1    1   0.509071982062E-01 0.509071983153E-01 0.509071980970E-01
 grad-res     0    4    4   10   25    1    1    1   0.109157146307E-05 0.109146039429E-05 0.101751272987E-03
(PID.TID 0000.0001)   ADM  precision_derivative_cost =    5.09071982061516E-02
(PID.TID 0000.0001)   ADM  precision_derivative_grad =    1.09157146307279E-06
 ph-grd  ierr ---------------------------
 ph-grd  ierr =            0 , icomp =           10 , ichknum =            4
 ph-grd -->hit<--            3           3           1           1
(PID.TID 0000.0001)  MDS_READ_FIELD: opening file: adxx_depth.0000000000.001.001.data
(PID.TID 0000.0001)  MDS_READ_FIELD: opening file: xx_depth.0000000000.001.001.data
(PID.TID 0000.0001)  MDS_READ_FIELD: opening global file: noWalls.bigRidge
(PID.TID 0000.0001) INI_CG2D: CG2D normalisation factor =  1.9999999999999996E-04
(PID.TID 0000.0001) 
                     ctrl_depth_ini: ctrl update R_low,
                                     adding the control vector.
(PID.TID 0000.0001)  MDS_READ_FIELD: opening file: xx_depth.0000000000.001.001.data
(PID.TID 0000.0001) Start initial hydrostatic pressure computation
(PID.TID 0000.0001) Pressure is predetermined for buoyancyRelation OCEANIC
(PID.TID 0000.0001) 
(PID.TID 0000.0001)  MDS_READ_FIELD: opening global file: windx.sin_y
(PID.TID 0000.0001) // =======================================================
(PID.TID 0000.0001) // Model current state
(PID.TID 0000.0001) // =======================================================
(PID.TID 0000.0001) 
(PID.TID 0000.0001) SOLVE_FOR_PRESSURE: putPmEinXvector =    F
 cg2d: Sum(rhs),rhsMax =   0.00000000000000E+00  0.00000000000000E+00
 cg2d: Sum(rhs),rhsMax =  -2.49999999999996E+01  6.03492218443698E-05
 cg2d: Sum(rhs),rhsMax =  -1.81034404639061E+01  2.18766023587220E-04
 cg2d: Sum(rhs),rhsMax =  -1.54955562832148E+01  4.32479836297444E-04
 cg2d: Sum(rhs),rhsMax =  -1.41111452323674E+01  6.49958988350290E-04
 cg2d: Sum(rhs),rhsMax =  -1.31144322329645E+01  8.30737102848087E-04
 cg2d: Sum(rhs),rhsMax =  -1.21209090323042E+01  9.52510661986397E-04
 cg2d: Sum(rhs),rhsMax =  -1.07124742371723E+01  1.02806631164034E-03
 cg2d: Sum(rhs),rhsMax =  -7.41375936671756E+00  1.27086596333818E-03
 cg2d: Sum(rhs),rhsMax =  -4.70217533428721E+00  1.51019014102974E-03
 cg2d: Sum(rhs),rhsMax =  -2.72440685883755E+00  1.65833738334855E-03
 cg2d: Sum(rhs),rhsMax =  -1.27958669001707E+00  1.70565508871971E-03
 cg2d: Sum(rhs),rhsMax =  -3.29564698771767E-01  1.66071960680879E-03
 cg2d: Sum(rhs),rhsMax =   5.21320410749234E-02  1.54812756244970E-03
 cg2d: Sum(rhs),rhsMax =  -2.86625373546793E-01  1.40338816187822E-03
 cg2d: Sum(rhs),rhsMax =  -1.30315843245363E+00  1.44268599734382E-03
 cg2d: Sum(rhs),rhsMax =  -2.68067690187785E+00  1.50836886643477E-03
 cg2d: Sum(rhs),rhsMax =  -4.07407453359602E+00  1.58424366879368E-03
 cg2d: Sum(rhs),rhsMax =  -5.18272348182713E+00  1.66593592779726E-03
 cg2d: Sum(rhs),rhsMax =  -5.80990598739450E+00  1.74846175210631E-03
 cg2d: Sum(rhs),rhsMax =  -5.87740628257843E+00  1.82725970974174E-03
 cg2d: Sum(rhs),rhsMax =  -5.41358312208343E+00  1.89900434392440E-03
 cg2d: Sum(rhs),rhsMax =  -4.53080677635039E+00  1.96213934191473E-03
 cg2d: Sum(rhs),rhsMax =  -3.22587899766323E+00  2.12611202198115E-03
 cg2d: Sum(rhs),rhsMax =  -2.04447212477987E+00  2.24837953314939E-03
 cg2d: Sum(rhs),rhsMax =  -1.10818137679036E+00  2.30404048714675E-03
 cg2d: Sum(rhs),rhsMax =  -4.90484883183859E-01  2.29576531976759E-03
 cg2d: Sum(rhs),rhsMax =  -2.61247066237202E-01  2.23814841761679E-03
 cg2d: Sum(rhs),rhsMax =  -4.50921971390397E-01  2.26266906447141E-03
 cg2d: Sum(rhs),rhsMax =  -1.00469611008369E+00  2.31946122510164E-03
 cg2d: Sum(rhs),rhsMax =  -1.78565331966013E+00  2.37599941013657E-03
 cg2d: Sum(rhs),rhsMax =  -2.62429309599969E+00  2.42805542789230E-03
 cg2d: Sum(rhs),rhsMax =  -3.35748487714855E+00  2.47123044345410E-03
 cg2d: Sum(rhs),rhsMax =  -3.85508919094133E+00  2.50195597567805E-03
 cg2d: Sum(rhs),rhsMax =  -4.03589979630166E+00  2.51830321693474E-03
 cg2d: Sum(rhs),rhsMax =  -3.87512849648942E+00  2.52047518174491E-03
 cg2d: Sum(rhs),rhsMax =  -3.40600370221850E+00  2.51092920782907E-03
 cg2d: Sum(rhs),rhsMax =  -2.61682443347620E+00  2.58874087509947E-03
 cg2d: Sum(rhs),rhsMax =  -1.83238712282519E+00  2.61669730150722E-03
 cg2d: Sum(rhs),rhsMax =  -1.17513338336695E+00  2.56005946404670E-03
 cg2d: Sum(rhs),rhsMax =  -7.11994623662437E-01  2.47855829282875E-03
 cg2d: Sum(rhs),rhsMax =  -5.26422157167338E-01  2.47042091419850E-03
 cg2d: Sum(rhs),rhsMax =  -6.78930221881583E-01  2.49676869176641E-03
 cg2d: Sum(rhs),rhsMax =  -1.12673723061262E+00  2.53652610270500E-03
 cg2d: Sum(rhs),rhsMax =  -1.75981626837740E+00  2.58504762626808E-03
 cg2d: Sum(rhs),rhsMax =  -2.43940637710237E+00  2.63568088986934E-03
 cg2d: Sum(rhs),rhsMax =  -3.03203011757185E+00  2.68092812486082E-03
 cg2d: Sum(rhs),rhsMax =  -3.40991311971014E+00  2.73286304389088E-03
 cg2d: Sum(rhs),rhsMax =  -3.48046023336432E+00  2.80943922876383E-03
 cg2d: Sum(rhs),rhsMax =  -3.32063073180948E+00  2.84054009185721E-03
 cg2d: Sum(rhs),rhsMax =  -2.96079447691004E+00  2.82589058143406E-03
 cg2d: Sum(rhs),rhsMax =  -2.32992811038505E+00  2.92147975595445E-03
 cg2d: Sum(rhs),rhsMax =  -1.72242456161937E+00  2.94384963775063E-03
 cg2d: Sum(rhs),rhsMax =  -1.21221903660104E+00  2.89157780776527E-03
 cg2d: Sum(rhs),rhsMax =  -8.69698394854552E-01  2.78046458402557E-03
 cg2d: Sum(rhs),rhsMax =  -7.64867805326226E-01  2.63730951015267E-03
 cg2d: Sum(rhs),rhsMax =  -9.31747849962585E-01  2.54529703290782E-03
 cg2d: Sum(rhs),rhsMax =  -1.31074338907274E+00  2.59464768535950E-03
 cg2d: Sum(rhs),rhsMax =  -1.82960843180322E+00  2.67470088186772E-03
 cg2d: Sum(rhs),rhsMax =  -2.36415409203797E+00  2.77096212231506E-03
 cg2d: Sum(rhs),rhsMax =  -2.80794779424638E+00  2.86583706167089E-03
 cg2d: Sum(rhs),rhsMax =  -3.09076537842744E+00  2.94225354270623E-03
 cg2d: Sum(rhs),rhsMax =  -3.17911023689163E+00  2.98708407142753E-03
 cg2d: Sum(rhs),rhsMax =  -3.06968980496059E+00  2.99369702010229E-03
 cg2d: Sum(rhs),rhsMax =  -2.74200030226056E+00  3.00868116812640E-03
 cg2d: Sum(rhs),rhsMax =  -2.22987018027978E+00  3.08320497330328E-03
 cg2d: Sum(rhs),rhsMax =  -1.72892383923231E+00  3.09216603448540E-03
 cg2d: Sum(rhs),rhsMax =  -1.30661125895162E+00  3.03707925094114E-03
 cg2d: Sum(rhs),rhsMax =  -1.02724587350741E+00  2.93201255778573E-03
 cg2d: Sum(rhs),rhsMax =  -9.49612079924135E-01  2.80059569588592E-03
 cg2d: Sum(rhs),rhsMax =  -1.10546681339450E+00  2.68802012110389E-03
 cg2d: Sum(rhs),rhsMax =  -1.41911845611211E+00  2.73183504098492E-03
 cg2d: Sum(rhs),rhsMax =  -1.85263652043508E+00  2.80075124269739E-03
 cg2d: Sum(rhs),rhsMax =  -2.30607104975202E+00  2.88121984614111E-03
 cg2d: Sum(rhs),rhsMax =  -2.69038332698684E+00  2.95745898886827E-03
 cg2d: Sum(rhs),rhsMax =  -2.94313284637674E+00  3.01465309941195E-03
 cg2d: Sum(rhs),rhsMax =  -3.03123923431165E+00  3.04190026169992E-03
 cg2d: Sum(rhs),rhsMax =  -2.94785321716726E+00  3.03433140436263E-03
 cg2d: Sum(rhs),rhsMax =  -2.61356654373019E+00  3.10365979043333E-03
 cg2d: Sum(rhs),rhsMax =  -2.18161316479002E+00  3.16115505985103E-03
 cg2d: Sum(rhs),rhsMax =  -1.75526122730493E+00  3.15966314487982E-03
 cg2d: Sum(rhs),rhsMax =  -1.39603742205953E+00  3.10114913286511E-03
 cg2d: Sum(rhs),rhsMax =  -1.16177138694696E+00  2.99876546576004E-03
 cg2d: Sum(rhs),rhsMax =  -1.10293745645763E+00  2.87411084409085E-03
 cg2d: Sum(rhs),rhsMax =  -1.24975132411399E+00  2.75286355678155E-03
 cg2d: Sum(rhs),rhsMax =  -1.53840867887656E+00  2.75098216082986E-03
 cg2d: Sum(rhs),rhsMax =  -1.91301871495592E+00  2.81271668585100E-03
 cg2d: Sum(rhs),rhsMax =  -2.30705939854269E+00  2.88449380636980E-03
 cg2d: Sum(rhs),rhsMax =  -2.64297552852592E+00  2.95188725052548E-03
 cg2d: Sum(rhs),rhsMax =  -2.86495129265953E+00  3.00154118114201E-03
 cg2d: Sum(rhs),rhsMax =  -2.94238808490139E+00  3.02377925702138E-03
 cg2d: Sum(rhs),rhsMax =  -2.84207310597618E+00  3.04217208052424E-03
 cg2d: Sum(rhs),rhsMax =  -2.51902173234306E+00  3.13830806451938E-03
 cg2d: Sum(rhs),rhsMax =  -2.14123727647207E+00  3.18959325059562E-03
 cg2d: Sum(rhs),rhsMax =  -1.76835916366189E+00  3.18714934123685E-03
 cg2d: Sum(rhs),rhsMax =  -1.45590346927294E+00  3.13272231140078E-03
 cg2d: Sum(rhs),rhsMax =  -1.25508067938672E+00  3.03818419350523E-03
 cg2d: Sum(rhs),rhsMax =  -1.20874900781254E+00  2.92305994280352E-03
 cg2d: Sum(rhs),rhsMax =  -1.34034307198062E+00  2.81059308633915E-03
 cg2d: Sum(rhs),rhsMax =  -1.62624328212234E+00  2.74190572464047E-03
(PID.TID 0000.0001) Did not write pickup because writePickupAtEnd = FALSE
 --> objf_test(bi,bj)   =  0.509071985072855D-01
 --> objf_tracer(bi,bj) =  0.000000000000000D+00
 --> objf_atl(bi,bj)    =  0.000000000000000D+00
  local fc =  0.509071985072855D-01
 global fc =  0.509071985072855D-01
 ph-check fcpertplus =   5.09071985072854644E-002
(PID.TID 0000.0001)  MDS_READ_FIELD: opening file: xx_depth.0000000000.001.001.data
 ph-check fcpertminus =   5.09071982061515965E-002
(PID.TID 0000.0001)  MDS_READ_FIELD: opening file: xx_depth.0000000000.001.001.data
(PID.TID 0000.0001)  MDS_READ_FIELD: opening global file: noWalls.bigRidge
(PID.TID 0000.0001) INI_CG2D: CG2D normalisation factor =  1.9999999999999996E-04
(PID.TID 0000.0001) 
                     ctrl_depth_ini: ctrl update R_low,
                                     adding the control vector.
(PID.TID 0000.0001)  MDS_READ_FIELD: opening file: xx_depth.0000000000.001.001.data
(PID.TID 0000.0001) Start initial hydrostatic pressure computation
(PID.TID 0000.0001) Pressure is predetermined for buoyancyRelation OCEANIC
(PID.TID 0000.0001) 
(PID.TID 0000.0001)  MDS_READ_FIELD: opening global file: windx.sin_y
(PID.TID 0000.0001) // =======================================================
(PID.TID 0000.0001) // Model current state
(PID.TID 0000.0001) // =======================================================
(PID.TID 0000.0001) 
(PID.TID 0000.0001) SOLVE_FOR_PRESSURE: putPmEinXvector =    F
 cg2d: Sum(rhs),rhsMax =   0.00000000000000E+00  0.00000000000000E+00
 cg2d: Sum(rhs),rhsMax =  -2.49999999999996E+01  6.03492218443698E-05
 cg2d: Sum(rhs),rhsMax =  -1.81034404639061E+01  2.18766023587220E-04
 cg2d: Sum(rhs),rhsMax =  -1.54955562832148E+01  4.32479836297444E-04
 cg2d: Sum(rhs),rhsMax =  -1.41111452335318E+01  6.49958988296543E-04
 cg2d: Sum(rhs),rhsMax =  -1.31144322335582E+01  8.30737102808678E-04
 cg2d: Sum(rhs),rhsMax =  -1.21209090327732E+01  9.52510661944201E-04
 cg2d: Sum(rhs),rhsMax =  -1.07124742372414E+01  1.02806631162381E-03
 cg2d: Sum(rhs),rhsMax =  -7.41375936659666E+00  1.27086596334326E-03
 cg2d: Sum(rhs),rhsMax =  -4.70217533482092E+00  1.51019014084644E-03
 cg2d: Sum(rhs),rhsMax =  -2.72440685972091E+00  1.65833738285167E-03
 cg2d: Sum(rhs),rhsMax =  -1.27958669092908E+00  1.70565508782298E-03
 cg2d: Sum(rhs),rhsMax =  -3.29564699533337E-01  1.66071960549901E-03
 cg2d: Sum(rhs),rhsMax =   5.21320402558939E-02  1.54812756082294E-03
 cg2d: Sum(rhs),rhsMax =  -2.86625375254302E-01  1.40338816015289E-03
 cg2d: Sum(rhs),rhsMax =  -1.30315843495009E+00  1.44268599641354E-03
 cg2d: Sum(rhs),rhsMax =  -2.68067690411067E+00  1.50836886619034E-03
 cg2d: Sum(rhs),rhsMax =  -4.07407453343487E+00  1.58424366953769E-03
 cg2d: Sum(rhs),rhsMax =  -5.18272347715150E+00  1.66593592978438E-03
 cg2d: Sum(rhs),rhsMax =  -5.80990597716705E+00  1.74846175550923E-03
 cg2d: Sum(rhs),rhsMax =  -5.87740626737280E+00  1.82725971462943E-03
 cg2d: Sum(rhs),rhsMax =  -5.41358310390237E+00  1.89900435025715E-03
 cg2d: Sum(rhs),rhsMax =  -4.53080675792072E+00  1.96213934955709E-03
 cg2d: Sum(rhs),rhsMax =  -3.22587898050655E+00  2.12611203242804E-03
 cg2d: Sum(rhs),rhsMax =  -2.04447211288495E+00  2.24837954436836E-03
 cg2d: Sum(rhs),rhsMax =  -1.10818136932821E+00  2.30404049860283E-03
 cg2d: Sum(rhs),rhsMax =  -4.90484878708895E-01  2.29576533098635E-03
 cg2d: Sum(rhs),rhsMax =  -2.61247062929840E-01  2.23814842826238E-03
 cg2d: Sum(rhs),rhsMax =  -4.50921967252828E-01  2.26266907609881E-03
 cg2d: Sum(rhs),rhsMax =  -1.00469610335711E+00  2.31946123724610E-03
 cg2d: Sum(rhs),rhsMax =  -1.78565330891510E+00  2.37599942295117E-03
 cg2d: Sum(rhs),rhsMax =  -2.62429308038358E+00  2.42805544155753E-03
 cg2d: Sum(rhs),rhsMax =  -3.35748485646832E+00  2.47123045814083E-03
 cg2d: Sum(rhs),rhsMax =  -3.85508916574732E+00  2.50195599151428E-03
 cg2d: Sum(rhs),rhsMax =  -4.03589976792441E+00  2.51830323398261E-03
 cg2d: Sum(rhs),rhsMax =  -3.87512846694160E+00  2.52047519999172E-03
 cg2d: Sum(rhs),rhsMax =  -3.40600367389365E+00  2.51092922719342E-03
 cg2d: Sum(rhs),rhsMax =  -2.61682443279377E+00  2.58874087322911E-03
 cg2d: Sum(rhs),rhsMax =  -1.83238712118632E+00  2.61669729947036E-03
 cg2d: Sum(rhs),rhsMax =  -1.17513338083130E+00  2.56005946188704E-03
 cg2d: Sum(rhs),rhsMax =  -7.11994614328506E-01  2.47855831194786E-03
 cg2d: Sum(rhs),rhsMax =  -5.26422148471700E-01  2.47042093711936E-03
 cg2d: Sum(rhs),rhsMax =  -6.78930212027477E-01  2.49676871515239E-03
 cg2d: Sum(rhs),rhsMax =  -1.12673721703022E+00  2.53652612656877E-03
 cg2d: Sum(rhs),rhsMax =  -1.75981624941764E+00  2.58504765064211E-03
 cg2d: Sum(rhs),rhsMax =  -2.43940635229113E+00  2.63568091478310E-03
 cg2d: Sum(rhs),rhsMax =  -3.03203008754761E+00  2.68092815031973E-03
 cg2d: Sum(rhs),rhsMax =  -3.40991311736794E+00  2.73286304507873E-03
 cg2d: Sum(rhs),rhsMax =  -3.48046023135212E+00  2.80943922984764E-03
 cg2d: Sum(rhs),rhsMax =  -3.32063072995005E+00  2.84054009287390E-03
 cg2d: Sum(rhs),rhsMax =  -2.96079447505725E+00  2.82589058241311E-03
 cg2d: Sum(rhs),rhsMax =  -2.32992811171807E+00  2.92147975299439E-03
 cg2d: Sum(rhs),rhsMax =  -1.72242456229816E+00  2.94384963445566E-03
 cg2d: Sum(rhs),rhsMax =  -1.21221903669415E+00  2.89157780413897E-03
 cg2d: Sum(rhs),rhsMax =  -8.69698394590606E-01  2.78046458009696E-03
 cg2d: Sum(rhs),rhsMax =  -7.64867805166416E-01  2.63730950597023E-03
 cg2d: Sum(rhs),rhsMax =  -9.31747848877842E-01  2.54529703318403E-03
 cg2d: Sum(rhs),rhsMax =  -1.31074338875877E+00  2.59464768531812E-03
 cg2d: Sum(rhs),rhsMax =  -1.82960843249778E+00  2.67470088146845E-03
 cg2d: Sum(rhs),rhsMax =  -2.36415409387831E+00  2.77096212154155E-03
 cg2d: Sum(rhs),rhsMax =  -2.80794779722347E+00  2.86583706053138E-03
 cg2d: Sum(rhs),rhsMax =  -3.09076538239562E+00  2.94225354122907E-03
 cg2d: Sum(rhs),rhsMax =  -3.17911024161583E+00  2.98708406965267E-03
 cg2d: Sum(rhs),rhsMax =  -3.06968981017320E+00  2.99369701807032E-03
 cg2d: Sum(rhs),rhsMax =  -2.74200031050733E+00  3.00868116267414E-03
 cg2d: Sum(rhs),rhsMax =  -2.22987018773997E+00  3.08320496751590E-03
 cg2d: Sum(rhs),rhsMax =  -1.72892384600287E+00  3.09216602831809E-03
 cg2d: Sum(rhs),rhsMax =  -1.30661126527182E+00  3.03707924437208E-03
 cg2d: Sum(rhs),rhsMax =  -1.02724587980466E+00  2.93201255081844E-03
 cg2d: Sum(rhs),rhsMax =  -9.49612086871112E-01  2.80059568854699E-03
 cg2d: Sum(rhs),rhsMax =  -1.10546682038011E+00  2.68802011695508E-03
 cg2d: Sum(rhs),rhsMax =  -1.41911846452231E+00  2.73183503632459E-03
 cg2d: Sum(rhs),rhsMax =  -1.85263653060815E+00  2.80075123749481E-03
 cg2d: Sum(rhs),rhsMax =  -2.30607106180299E+00  2.88121984039281E-03
 cg2d: Sum(rhs),rhsMax =  -2.69038334079876E+00  2.95745898259769E-03
 cg2d: Sum(rhs),rhsMax =  -2.94313286165512E+00  3.01465309266393E-03
 cg2d: Sum(rhs),rhsMax =  -3.03123925066051E+00  3.04190025453079E-03
 cg2d: Sum(rhs),rhsMax =  -2.94785323415814E+00  3.03433139682816E-03
 cg2d: Sum(rhs),rhsMax =  -2.61356656153174E+00  3.10365978088510E-03
 cg2d: Sum(rhs),rhsMax =  -2.18161318143652E+00  3.16115504993785E-03
 cg2d: Sum(rhs),rhsMax =  -1.75526124305190E+00  3.15966313456498E-03
 cg2d: Sum(rhs),rhsMax =  -1.39603743736463E+00  3.10114912213033E-03
 cg2d: Sum(rhs),rhsMax =  -1.16177140249475E+00  2.99876545460819E-03
 cg2d: Sum(rhs),rhsMax =  -1.10293747318696E+00  2.87411083254421E-03
 cg2d: Sum(rhs),rhsMax =  -1.24975134315680E+00  2.75286354487615E-03
 cg2d: Sum(rhs),rhsMax =  -1.53840869953541E+00  2.75098215001171E-03
 cg2d: Sum(rhs),rhsMax =  -1.91301873807421E+00  2.81271667440434E-03
 cg2d: Sum(rhs),rhsMax =  -2.30705942420115E+00  2.88449379429032E-03
 cg2d: Sum(rhs),rhsMax =  -2.64297555648777E+00  2.95188723783784E-03
 cg2d: Sum(rhs),rhsMax =  -2.86495132246773E+00  3.00154116789455E-03
 cg2d: Sum(rhs),rhsMax =  -2.94238811598355E+00  3.02377924327632E-03
 cg2d: Sum(rhs),rhsMax =  -2.84207313709420E+00  3.04217206658376E-03
 cg2d: Sum(rhs),rhsMax =  -2.51902176173476E+00  3.13830805017154E-03
 cg2d: Sum(rhs),rhsMax =  -2.14123730423421E+00  3.18959323579335E-03
 cg2d: Sum(rhs),rhsMax =  -1.76835919019745E+00  3.18714932594819E-03
 cg2d: Sum(rhs),rhsMax =  -1.45590349524517E+00  3.13272229561503E-03
 cg2d: Sum(rhs),rhsMax =  -1.25508070572355E+00  3.03818417723492E-03
 cg2d: Sum(rhs),rhsMax =  -1.20874903570454E+00  2.92305992608177E-03
 cg2d: Sum(rhs),rhsMax =  -1.34034310277200E+00  2.81059306921275E-03
 cg2d: Sum(rhs),rhsMax =  -1.62624331679335E+00  2.74190570697467E-03
(PID.TID 0000.0001) Did not write pickup because writePickupAtEnd = FALSE
 --> objf_test(bi,bj)   =  0.509071979050175D-01
 --> objf_tracer(bi,bj) =  0.000000000000000D+00
 --> objf_atl(bi,bj)    =  0.000000000000000D+00
  local fc =  0.509071979050175D-01
 global fc =  0.509071979050175D-01
(PID.TID 0000.0001)  MDS_READ_FIELD: opening file: xx_depth.0000000000.001.001.data
grad-res -------------------------------
 grad-res     0    5    3    3    1    1    1    1   0.509071982062E-01 0.509071985073E-01 0.509071979050E-01
 grad-res     0    5    5   13   25    1    1    1   0.301376415417E-05 0.301133968456E-05 0.804465609125E-03
(PID.TID 0000.0001)   ADM  precision_derivative_cost =    5.09071982061516E-02
(PID.TID 0000.0001)   ADM  precision_derivative_grad =    3.01376415417151E-06
 ph-grd  ierr ---------------------------
 ph-grd  ierr =            0 , icomp =           13 , ichknum =            5
 ph-grd -->hit<--            1           4           1           1
(PID.TID 0000.0001)  MDS_READ_FIELD: opening file: adxx_depth.0000000000.001.001.data
(PID.TID 0000.0001)  MDS_READ_FIELD: opening file: xx_depth.0000000000.001.001.data
(PID.TID 0000.0001)  MDS_READ_FIELD: opening global file: noWalls.bigRidge
(PID.TID 0000.0001) INI_CG2D: CG2D normalisation factor =  1.9999999999999996E-04
(PID.TID 0000.0001) 
                     ctrl_depth_ini: ctrl update R_low,
                                     adding the control vector.
(PID.TID 0000.0001)  MDS_READ_FIELD: opening file: xx_depth.0000000000.001.001.data
(PID.TID 0000.0001) Start initial hydrostatic pressure computation
(PID.TID 0000.0001) Pressure is predetermined for buoyancyRelation OCEANIC
(PID.TID 0000.0001) 
(PID.TID 0000.0001)  MDS_READ_FIELD: opening global file: windx.sin_y
(PID.TID 0000.0001) // =======================================================
(PID.TID 0000.0001) // Model current state
(PID.TID 0000.0001) // =======================================================
(PID.TID 0000.0001) 
(PID.TID 0000.0001) SOLVE_FOR_PRESSURE: putPmEinXvector =    F
 cg2d: Sum(rhs),rhsMax =   0.00000000000000E+00  0.00000000000000E+00
 cg2d: Sum(rhs),rhsMax =  -2.49999999999996E+01  6.03492218443698E-05
 cg2d: Sum(rhs),rhsMax =  -1.81034404639061E+01  2.18766023587220E-04
 cg2d: Sum(rhs),rhsMax =  -1.54955562832148E+01  4.32479836297444E-04
 cg2d: Sum(rhs),rhsMax =  -1.41111452328566E+01  6.49958988327631E-04
 cg2d: Sum(rhs),rhsMax =  -1.31144322335799E+01  8.30737102808245E-04
 cg2d: Sum(rhs),rhsMax =  -1.21209090332938E+01  9.52510661906413E-04
 cg2d: Sum(rhs),rhsMax =  -1.07124742371565E+01  1.02806631163800E-03
 cg2d: Sum(rhs),rhsMax =  -7.41375936618052E+00  1.27086596342438E-03
 cg2d: Sum(rhs),rhsMax =  -4.70217533397703E+00  1.51019014112518E-03
 cg2d: Sum(rhs),rhsMax =  -2.72440685878158E+00  1.65833738339816E-03
 cg2d: Sum(rhs),rhsMax =  -1.27958669015958E+00  1.70565508864702E-03
 cg2d: Sum(rhs),rhsMax =  -3.29564699010456E-01  1.66071960652483E-03
 cg2d: Sum(rhs),rhsMax =   5.21320407779788E-02  1.54812756187309E-03
 cg2d: Sum(rhs),rhsMax =  -2.86625374227041E-01  1.40338816095475E-03
 cg2d: Sum(rhs),rhsMax =  -1.30315843358598E+00  1.44268599676142E-03
 cg2d: Sum(rhs),rhsMax =  -2.68067690301608E+00  1.50836886617174E-03
 cg2d: Sum(rhs),rhsMax =  -4.07407453370979E+00  1.58424366901251E-03
 cg2d: Sum(rhs),rhsMax =  -5.18272347982183E+00  1.66593592864133E-03
 cg2d: Sum(rhs),rhsMax =  -5.80990598267072E+00  1.74846175368142E-03
 cg2d: Sum(rhs),rhsMax =  -5.87740627534337E+00  1.82725971210281E-03
 cg2d: Sum(rhs),rhsMax =  -5.41358311330265E+00  1.89900434707046E-03
 cg2d: Sum(rhs),rhsMax =  -4.53080676741346E+00  1.96213934579269E-03
 cg2d: Sum(rhs),rhsMax =  -3.22587899631785E+00  2.12611202278767E-03
 cg2d: Sum(rhs),rhsMax =  -2.04447212316863E+00  2.24837953468941E-03
 cg2d: Sum(rhs),rhsMax =  -1.10818137550236E+00  2.30404048930831E-03
 cg2d: Sum(rhs),rhsMax =  -4.90484882395863E-01  2.29576532237201E-03
 cg2d: Sum(rhs),rhsMax =  -2.61247065748327E-01  2.23814842044642E-03
 cg2d: Sum(rhs),rhsMax =  -4.50921970104550E-01  2.26266907076858E-03
 cg2d: Sum(rhs),rhsMax =  -1.00469610734703E+00  2.31946123169176E-03
 cg2d: Sum(rhs),rhsMax =  -1.78565331468935E+00  2.37599941709241E-03
 cg2d: Sum(rhs),rhsMax =  -2.62429308834338E+00  2.42805543530776E-03
 cg2d: Sum(rhs),rhsMax =  -3.35748486671938E+00  2.47123045142573E-03
 cg2d: Sum(rhs),rhsMax =  -3.85508917804807E+00  2.50195598428705E-03
 cg2d: Sum(rhs),rhsMax =  -4.03589978166571E+00  2.51830322623280E-03
 cg2d: Sum(rhs),rhsMax =  -3.87512848119978E+00  2.52047519174640E-03
 cg2d: Sum(rhs),rhsMax =  -3.40600368758096E+00  2.51092921851063E-03
 cg2d: Sum(rhs),rhsMax =  -2.61682442689306E+00  2.58874088121326E-03
 cg2d: Sum(rhs),rhsMax =  -1.83238711610905E+00  2.61669731016097E-03
 cg2d: Sum(rhs),rhsMax =  -1.17513337777686E+00  2.56005947425060E-03
 cg2d: Sum(rhs),rhsMax =  -7.11994621415313E-01  2.47855829672573E-03
 cg2d: Sum(rhs),rhsMax =  -5.26422153121929E-01  2.47042092727117E-03
 cg2d: Sum(rhs),rhsMax =  -6.78930216929881E-01  2.49676870515217E-03
 cg2d: Sum(rhs),rhsMax =  -1.12673722322207E+00  2.53652611639384E-03
 cg2d: Sum(rhs),rhsMax =  -1.75981625756381E+00  2.58504764026538E-03
 cg2d: Sum(rhs),rhsMax =  -2.43940636257867E+00  2.63568090418642E-03
 cg2d: Sum(rhs),rhsMax =  -3.03203009970024E+00  2.68092813950492E-03
 cg2d: Sum(rhs),rhsMax =  -3.40991310019144E+00  2.73286305840037E-03
 cg2d: Sum(rhs),rhsMax =  -3.48046021319260E+00  2.80943924376267E-03
 cg2d: Sum(rhs),rhsMax =  -3.32063071187858E+00  2.84054010730017E-03
 cg2d: Sum(rhs),rhsMax =  -2.96079445800640E+00  2.82589059730084E-03
 cg2d: Sum(rhs),rhsMax =  -2.32992810158134E+00  2.92147976367355E-03
 cg2d: Sum(rhs),rhsMax =  -1.72242455274448E+00  2.94384964761437E-03
 cg2d: Sum(rhs),rhsMax =  -1.21221902818469E+00  2.89157781912984E-03
 cg2d: Sum(rhs),rhsMax =  -8.69698386808372E-01  2.78046459603731E-03
 cg2d: Sum(rhs),rhsMax =  -7.64867796917403E-01  2.63730952192114E-03
 cg2d: Sum(rhs),rhsMax =  -9.31747837356411E-01  2.54529705201352E-03
 cg2d: Sum(rhs),rhsMax =  -1.31074337319505E+00  2.59464770514278E-03
 cg2d: Sum(rhs),rhsMax =  -1.82960841176180E+00  2.67470090232986E-03
 cg2d: Sum(rhs),rhsMax =  -2.36415406785786E+00  2.77096214343936E-03
 cg2d: Sum(rhs),rhsMax =  -2.80794776663553E+00  2.86583708342842E-03
 cg2d: Sum(rhs),rhsMax =  -3.09076534842657E+00  2.94225356506360E-03
 cg2d: Sum(rhs),rhsMax =  -3.17911020561789E+00  2.98708409435496E-03
 cg2d: Sum(rhs),rhsMax =  -3.06968977348880E+00  2.99369704358055E-03
 cg2d: Sum(rhs),rhsMax =  -2.74200028585947E+00  3.00868117736342E-03
 cg2d: Sum(rhs),rhsMax =  -2.22987016390434E+00  3.08320498423866E-03
 cg2d: Sum(rhs),rhsMax =  -1.72892382317792E+00  3.09216604680751E-03
 cg2d: Sum(rhs),rhsMax =  -1.30661124321515E+00  3.03707926406944E-03
 cg2d: Sum(rhs),rhsMax =  -1.02724585765134E+00  2.93201257099103E-03
 cg2d: Sum(rhs),rhsMax =  -9.49612063122973E-01  2.80059570843990E-03
 cg2d: Sum(rhs),rhsMax =  -1.10546678812814E+00  2.68802014886814E-03
 cg2d: Sum(rhs),rhsMax =  -1.41911842698752E+00  2.73183506942664E-03
 cg2d: Sum(rhs),rhsMax =  -1.85263648651012E+00  2.80075127179987E-03
 cg2d: Sum(rhs),rhsMax =  -2.30607101103473E+00  2.88121987587694E-03
 cg2d: Sum(rhs),rhsMax =  -2.69038328419956E+00  2.95745901920533E-03
 cg2d: Sum(rhs),rhsMax =  -2.94313280060846E+00  3.01465313032047E-03
 cg2d: Sum(rhs),rhsMax =  -3.03123918675673E+00  3.04190029315926E-03
 cg2d: Sum(rhs),rhsMax =  -2.94785316899597E+00  3.03433143636623E-03
 cg2d: Sum(rhs),rhsMax =  -2.61356651719476E+00  3.10365980105512E-03
 cg2d: Sum(rhs),rhsMax =  -2.18161313810803E+00  3.16115507212270E-03
 cg2d: Sum(rhs),rhsMax =  -1.75526120057617E+00  3.15966315841480E-03
 cg2d: Sum(rhs),rhsMax =  -1.39603739508847E+00  3.10114914701630E-03
 cg2d: Sum(rhs),rhsMax =  -1.16177135916642E+00  2.99876547974240E-03
 cg2d: Sum(rhs),rhsMax =  -1.10293742704044E+00  2.87411085713177E-03
 cg2d: Sum(rhs),rhsMax =  -1.24975129232429E+00  2.75286356826931E-03
 cg2d: Sum(rhs),rhsMax =  -1.53840863040732E+00  2.75098219807797E-03
 cg2d: Sum(rhs),rhsMax =  -1.91301866112302E+00  2.81271672379040E-03
 cg2d: Sum(rhs),rhsMax =  -2.30705933937639E+00  2.88449384496322E-03
 cg2d: Sum(rhs),rhsMax =  -2.64297546480368E+00  2.95188728973017E-03
 cg2d: Sum(rhs),rhsMax =  -2.86495122554644E+00  3.00154122091765E-03
 cg2d: Sum(rhs),rhsMax =  -2.94238801567358E+00  3.02377929733775E-03
 cg2d: Sum(rhs),rhsMax =  -2.84207306837371E+00  3.04217208764073E-03
 cg2d: Sum(rhs),rhsMax =  -2.51902169411127E+00  3.13830807329344E-03
 cg2d: Sum(rhs),rhsMax =  -2.14123723753034E+00  3.18959326105730E-03
 cg2d: Sum(rhs),rhsMax =  -1.76835912387341E+00  3.18714935307357E-03
 cg2d: Sum(rhs),rhsMax =  -1.45590342829096E+00  3.13272232401748E-03
 cg2d: Sum(rhs),rhsMax =  -1.25508063660251E+00  3.03818420613783E-03
 cg2d: Sum(rhs),rhsMax =  -1.20874896248613E+00  2.92305995466353E-03
 cg2d: Sum(rhs),rhsMax =  -1.34034302358513E+00  2.81059309676149E-03
 cg2d: Sum(rhs),rhsMax =  -1.62624320893712E+00  2.74190577066971E-03
(PID.TID 0000.0001) Did not write pickup because writePickupAtEnd = FALSE
 --> objf_test(bi,bj)   =  0.509071982240805D-01
 --> objf_tracer(bi,bj) =  0.000000000000000D+00
 --> objf_atl(bi,bj)    =  0.000000000000000D+00
  local fc =  0.509071982240805D-01
 global fc =  0.509071982240805D-01
 ph-check fcpertplus =   5.09071982240805257E-002
(PID.TID 0000.0001)  MDS_READ_FIELD: opening file: xx_depth.0000000000.001.001.data
 ph-check fcpertminus =   5.09071982061515965E-002
(PID.TID 0000.0001)  MDS_READ_FIELD: opening file: xx_depth.0000000000.001.001.data
(PID.TID 0000.0001)  MDS_READ_FIELD: opening global file: noWalls.bigRidge
(PID.TID 0000.0001) INI_CG2D: CG2D normalisation factor =  1.9999999999999996E-04
(PID.TID 0000.0001) 
                     ctrl_depth_ini: ctrl update R_low,
                                     adding the control vector.
(PID.TID 0000.0001)  MDS_READ_FIELD: opening file: xx_depth.0000000000.001.001.data
(PID.TID 0000.0001) Start initial hydrostatic pressure computation
(PID.TID 0000.0001) Pressure is predetermined for buoyancyRelation OCEANIC
(PID.TID 0000.0001) 
(PID.TID 0000.0001)  MDS_READ_FIELD: opening global file: windx.sin_y
(PID.TID 0000.0001) // =======================================================
(PID.TID 0000.0001) // Model current state
(PID.TID 0000.0001) // =======================================================
(PID.TID 0000.0001) 
(PID.TID 0000.0001) SOLVE_FOR_PRESSURE: putPmEinXvector =    F
 cg2d: Sum(rhs),rhsMax =   0.00000000000000E+00  0.00000000000000E+00
 cg2d: Sum(rhs),rhsMax =  -2.49999999999996E+01  6.03492218443698E-05
 cg2d: Sum(rhs),rhsMax =  -1.81034404639061E+01  2.18766023587220E-04
 cg2d: Sum(rhs),rhsMax =  -1.54955562832148E+01  4.32479836297444E-04
 cg2d: Sum(rhs),rhsMax =  -1.41111452330425E+01  6.49958988319206E-04
 cg2d: Sum(rhs),rhsMax =  -1.31144322329427E+01  8.30737102848526E-04
 cg2d: Sum(rhs),rhsMax =  -1.21209090317836E+01  9.52510662024186E-04
 cg2d: Sum(rhs),rhsMax =  -1.07124742372573E+01  1.02806631162615E-03
 cg2d: Sum(rhs),rhsMax =  -7.41375936713366E+00  1.27086596325705E-03
 cg2d: Sum(rhs),rhsMax =  -4.70217533513111E+00  1.51019014075099E-03
 cg2d: Sum(rhs),rhsMax =  -2.72440685977684E+00  1.65833738280207E-03
 cg2d: Sum(rhs),rhsMax =  -1.27958669078656E+00  1.70565508789567E-03
 cg2d: Sum(rhs),rhsMax =  -3.29564699294638E-01  1.66071960578297E-03
 cg2d: Sum(rhs),rhsMax =   5.21320405528466E-02  1.54812756139954E-03
 cg2d: Sum(rhs),rhsMax =  -2.86625374574042E-01  1.40338816107636E-03
 cg2d: Sum(rhs),rhsMax =  -1.30315843381773E+00  1.44268599699594E-03
 cg2d: Sum(rhs),rhsMax =  -2.68067690297243E+00  1.50836886645337E-03
 cg2d: Sum(rhs),rhsMax =  -4.07407453332106E+00  1.58424366931887E-03
 cg2d: Sum(rhs),rhsMax =  -5.18272347915679E+00  1.66593592894030E-03
 cg2d: Sum(rhs),rhsMax =  -5.80990598189077E+00  1.74846175393414E-03
 cg2d: Sum(rhs),rhsMax =  -5.87740627460788E+00  1.82725971226835E-03
 cg2d: Sum(rhs),rhsMax =  -5.41358311268310E+00  1.89900434711111E-03
 cg2d: Sum(rhs),rhsMax =  -4.53080676685760E+00  1.96213934567914E-03
 cg2d: Sum(rhs),rhsMax =  -3.22587898185190E+00  2.12611203162152E-03
 cg2d: Sum(rhs),rhsMax =  -2.04447211449616E+00  2.24837954282835E-03
 cg2d: Sum(rhs),rhsMax =  -1.10818137061618E+00  2.30404049644127E-03
 cg2d: Sum(rhs),rhsMax =  -4.90484879496863E-01  2.29576532838193E-03
 cg2d: Sum(rhs),rhsMax =  -2.61247063418687E-01  2.23814842543276E-03
 cg2d: Sum(rhs),rhsMax =  -4.50921968538646E-01  2.26266906980163E-03
 cg2d: Sum(rhs),rhsMax =  -1.00469610609374E+00  2.31946123065597E-03
 cg2d: Sum(rhs),rhsMax =  -1.78565331388584E+00  2.37599941599533E-03
 cg2d: Sum(rhs),rhsMax =  -2.62429308803985E+00  2.42805543414208E-03
 cg2d: Sum(rhs),rhsMax =  -3.35748486689747E+00  2.47123045016919E-03
 cg2d: Sum(rhs),rhsMax =  -3.85508917864054E+00  2.50195598290528E-03
 cg2d: Sum(rhs),rhsMax =  -4.03589978256034E+00  2.51830322468453E-03
 cg2d: Sum(rhs),rhsMax =  -3.87512848223123E+00  2.52047518999022E-03
 cg2d: Sum(rhs),rhsMax =  -3.40600368853114E+00  2.51092921651186E-03
 cg2d: Sum(rhs),rhsMax =  -2.61682443937688E+00  2.58874086711531E-03
 cg2d: Sum(rhs),rhsMax =  -1.83238712790241E+00  2.61669729081660E-03
 cg2d: Sum(rhs),rhsMax =  -1.17513338642133E+00  2.56005945168315E-03
 cg2d: Sum(rhs),rhsMax =  -7.11994616575571E-01  2.47855830805088E-03
 cg2d: Sum(rhs),rhsMax =  -5.26422152517050E-01  2.47042092404667E-03
 cg2d: Sum(rhs),rhsMax =  -6.78930216979121E-01  2.49676870176662E-03
 cg2d: Sum(rhs),rhsMax =  -1.12673722442072E+00  2.53652611287992E-03
 cg2d: Sum(rhs),rhsMax =  -1.75981626023116E+00  2.58504763664481E-03
 cg2d: Sum(rhs),rhsMax =  -2.43940636681477E+00  2.63568090046602E-03
 cg2d: Sum(rhs),rhsMax =  -3.03203010541916E+00  2.68092813567564E-03
 cg2d: Sum(rhs),rhsMax =  -3.40991313688657E+00  2.73286303056924E-03
 cg2d: Sum(rhs),rhsMax =  -3.48046025152376E+00  2.80943921484881E-03
 cg2d: Sum(rhs),rhsMax =  -3.32063074988090E+00  2.84054007743091E-03
 cg2d: Sum(rhs),rhsMax =  -2.96079449396082E+00  2.82589056654632E-03
 cg2d: Sum(rhs),rhsMax =  -2.32992812052170E+00  2.92147974527529E-03
 cg2d: Sum(rhs),rhsMax =  -1.72242457117298E+00  2.94384962459189E-03
 cg2d: Sum(rhs),rhsMax =  -1.21221904511041E+00  2.89157779277439E-03
 cg2d: Sum(rhs),rhsMax =  -8.69698402636698E-01  2.78046456808522E-03
 cg2d: Sum(rhs),rhsMax =  -7.64867813575145E-01  2.63730949420176E-03
 cg2d: Sum(rhs),rhsMax =  -9.31747861483912E-01  2.54529701407833E-03
 cg2d: Sum(rhs),rhsMax =  -1.31074340463637E+00  2.59464766553481E-03
 cg2d: Sum(rhs),rhsMax =  -1.82960845253911E+00  2.67470086100630E-03
 cg2d: Sum(rhs),rhsMax =  -2.36415411805834E+00  2.77096210041725E-03
 cg2d: Sum(rhs),rhsMax =  -2.80794782483424E+00  2.86583703877382E-03
 cg2d: Sum(rhs),rhsMax =  -3.09076541239640E+00  2.94225351887170E-03
 cg2d: Sum(rhs),rhsMax =  -3.17911027288951E+00  2.98708404672521E-03
 cg2d: Sum(rhs),rhsMax =  -3.06968984164490E+00  2.99369699459206E-03
 cg2d: Sum(rhs),rhsMax =  -2.74200032690833E+00  3.00868115343713E-03
 cg2d: Sum(rhs),rhsMax =  -2.22987020411535E+00  3.08320495658050E-03
 cg2d: Sum(rhs),rhsMax =  -1.72892386205717E+00  3.09216601599597E-03
 cg2d: Sum(rhs),rhsMax =  -1.30661128100822E+00  3.03707923124376E-03
 cg2d: Sum(rhs),rhsMax =  -1.02724589566065E+00  2.93201253761313E-03
 cg2d: Sum(rhs),rhsMax =  -9.49612103672178E-01  2.80059567599301E-03
 cg2d: Sum(rhs),rhsMax =  -1.10546684564637E+00  2.68802008919081E-03
 cg2d: Sum(rhs),rhsMax =  -1.41911849364680E+00  2.73183500788285E-03
 cg2d: Sum(rhs),rhsMax =  -1.85263656453302E+00  2.80075120839231E-03
 cg2d: Sum(rhs),rhsMax =  -2.30607110052018E+00  2.88121981065697E-03
 cg2d: Sum(rhs),rhsMax =  -2.69038338358592E+00  2.95745895226065E-03
 cg2d: Sum(rhs),rhsMax =  -2.94313290742329E+00  3.01465306175540E-03
 cg2d: Sum(rhs),rhsMax =  -3.03123929821533E+00  3.04190022307144E-03
 cg2d: Sum(rhs),rhsMax =  -2.94785328232934E+00  3.03433136482455E-03
 cg2d: Sum(rhs),rhsMax =  -2.61356658806709E+00  3.10365977026330E-03
 cg2d: Sum(rhs),rhsMax =  -2.18161320811842E+00  3.16115503766616E-03
 cg2d: Sum(rhs),rhsMax =  -1.75526126978057E+00  3.15966312102996E-03
 cg2d: Sum(rhs),rhsMax =  -1.39603746433559E+00  3.10114910797913E-03
 cg2d: Sum(rhs),rhsMax =  -1.16177143027520E+00  2.99876544062581E-03
 cg2d: Sum(rhs),rhsMax =  -1.10293750260404E+00  2.87411081950329E-03
 cg2d: Sum(rhs),rhsMax =  -1.24975137494639E+00  2.75286353338837E-03
 cg2d: Sum(rhs),rhsMax =  -1.53840874800455E+00  2.75098211276360E-03
 cg2d: Sum(rhs),rhsMax =  -1.91301879190703E+00  2.81271663646491E-03
 cg2d: Sum(rhs),rhsMax =  -2.30705948336736E+00  2.88449375569687E-03
 cg2d: Sum(rhs),rhsMax =  -2.64297562020992E+00  2.95188719863315E-03
 cg2d: Sum(rhs),rhsMax =  -2.86495138958074E+00  3.00154112811890E-03
 cg2d: Sum(rhs),rhsMax =  -2.94238818521129E+00  3.02377920295993E-03
 cg2d: Sum(rhs),rhsMax =  -2.84207317469660E+00  3.04217205946726E-03
 cg2d: Sum(rhs),rhsMax =  -2.51902179996649E+00  3.13830804139745E-03
 cg2d: Sum(rhs),rhsMax =  -2.14123734317587E+00  3.18959322533166E-03
 cg2d: Sum(rhs),rhsMax =  -1.76835922998588E+00  3.18714931411145E-03
 cg2d: Sum(rhs),rhsMax =  -1.45590353622708E+00  3.13272228299831E-03
 cg2d: Sum(rhs),rhsMax =  -1.25508074850769E+00  3.03818416460232E-03
 cg2d: Sum(rhs),rhsMax =  -1.20874908103088E+00  2.92305991422176E-03
 cg2d: Sum(rhs),rhsMax =  -1.34034315116742E+00  2.81059305879041E-03
 cg2d: Sum(rhs),rhsMax =  -1.62624338997849E+00  2.74190566094542E-03
(PID.TID 0000.0001) Did not write pickup because writePickupAtEnd = FALSE
 --> objf_test(bi,bj)   =  0.509071981882225D-01
 --> objf_tracer(bi,bj) =  0.000000000000000D+00
 --> objf_atl(bi,bj)    =  0.000000000000000D+00
  local fc =  0.509071981882225D-01
 global fc =  0.509071981882225D-01
(PID.TID 0000.0001)  MDS_READ_FIELD: opening file: xx_depth.0000000000.001.001.data
grad-res -------------------------------
 grad-res     0    6    1    4    1    1    1    1   0.509071982062E-01 0.509071982241E-01 0.509071981882E-01
 grad-res     0    6    6   16   25    1    1    1   0.179228603653E-06 0.179290332580E-06 -.344414486587E-03
(PID.TID 0000.0001)   ADM  precision_derivative_cost =    5.09071982061516E-02
(PID.TID 0000.0001)   ADM  precision_derivative_grad =    1.79228603652842E-07
 ph-grd  ierr ---------------------------
 ph-grd  ierr =            0 , icomp =           16 , ichknum =            6
 ph-grd -->hit<--            4           4           1           1
(PID.TID 0000.0001)  MDS_READ_FIELD: opening file: adxx_depth.0000000000.001.001.data
(PID.TID 0000.0001)  MDS_READ_FIELD: opening file: xx_depth.0000000000.001.001.data
(PID.TID 0000.0001)  MDS_READ_FIELD: opening global file: noWalls.bigRidge
(PID.TID 0000.0001) INI_CG2D: CG2D normalisation factor =  1.9999999999999996E-04
(PID.TID 0000.0001) 
                     ctrl_depth_ini: ctrl update R_low,
                                     adding the control vector.
(PID.TID 0000.0001)  MDS_READ_FIELD: opening file: xx_depth.0000000000.001.001.data
(PID.TID 0000.0001) Start initial hydrostatic pressure computation
(PID.TID 0000.0001) Pressure is predetermined for buoyancyRelation OCEANIC
(PID.TID 0000.0001) 
(PID.TID 0000.0001)  MDS_READ_FIELD: opening global file: windx.sin_y
(PID.TID 0000.0001) // =======================================================
(PID.TID 0000.0001) // Model current state
(PID.TID 0000.0001) // =======================================================
(PID.TID 0000.0001) 
(PID.TID 0000.0001) SOLVE_FOR_PRESSURE: putPmEinXvector =    F
 cg2d: Sum(rhs),rhsMax =   0.00000000000000E+00  0.00000000000000E+00
 cg2d: Sum(rhs),rhsMax =  -2.49999999999996E+01  6.03492218443698E-05
 cg2d: Sum(rhs),rhsMax =  -1.81034404639061E+01  2.18766023587220E-04
 cg2d: Sum(rhs),rhsMax =  -1.54955562832148E+01  4.32479836297444E-04
 cg2d: Sum(rhs),rhsMax =  -1.41111452330415E+01  6.49958988318885E-04
 cg2d: Sum(rhs),rhsMax =  -1.31144322331342E+01  8.30737102836108E-04
 cg2d: Sum(rhs),rhsMax =  -1.21209090323673E+01  9.52510661979096E-04
 cg2d: Sum(rhs),rhsMax =  -1.07124742393710E+01  1.02806631142607E-03
 cg2d: Sum(rhs),rhsMax =  -7.41375936712857E+00  1.27086596326402E-03
 cg2d: Sum(rhs),rhsMax =  -4.70217533469540E+00  1.51019014089895E-03
 cg2d: Sum(rhs),rhsMax =  -2.72440685918116E+00  1.65833738315983E-03
 cg2d: Sum(rhs),rhsMax =  -1.27958669025132E+00  1.70565508851263E-03
 cg2d: Sum(rhs),rhsMax =  -3.29564698938877E-01  1.66071960666995E-03
 cg2d: Sum(rhs),rhsMax =   5.21320408557033E-02  1.54812756251637E-03
 cg2d: Sum(rhs),rhsMax =  -2.86625373763214E-01  1.40338816232697E-03
 cg2d: Sum(rhs),rhsMax =  -1.30315843104346E+00  1.44268599929337E-03
 cg2d: Sum(rhs),rhsMax =  -2.68067689818115E+00  1.50836886871831E-03
 cg2d: Sum(rhs),rhsMax =  -4.07407452740597E+00  1.58424367133455E-03
 cg2d: Sum(rhs),rhsMax =  -5.18272347364684E+00  1.66593593052500E-03
 cg2d: Sum(rhs),rhsMax =  -5.80990597811396E+00  1.74846175497725E-03
 cg2d: Sum(rhs),rhsMax =  -5.87740627310536E+00  1.82725971275534E-03
 cg2d: Sum(rhs),rhsMax =  -5.41358311314459E+00  1.89900434713210E-03
 cg2d: Sum(rhs),rhsMax =  -4.53080676849071E+00  1.96213934541873E-03
 cg2d: Sum(rhs),rhsMax =  -3.22587898757643E+00  2.12611202882433E-03
 cg2d: Sum(rhs),rhsMax =  -2.04447211905858E+00  2.24837953990346E-03
 cg2d: Sum(rhs),rhsMax =  -1.10818137429418E+00  2.30404049361426E-03
 cg2d: Sum(rhs),rhsMax =  -4.90484882776043E-01  2.29576532584145E-03
 cg2d: Sum(rhs),rhsMax =  -2.61247066829462E-01  2.23814842329821E-03
 cg2d: Sum(rhs),rhsMax =  -4.50921971423352E-01  2.26266907248016E-03
 cg2d: Sum(rhs),rhsMax =  -1.00469610825071E+00  2.31946123394182E-03
 cg2d: Sum(rhs),rhsMax =  -1.78565331486348E+00  2.37599941965392E-03
 cg2d: Sum(rhs),rhsMax =  -2.62429308789490E+00  2.42805543788615E-03
 cg2d: Sum(rhs),rhsMax =  -3.35748486623446E+00  2.47123045370628E-03
 cg2d: Sum(rhs),rhsMax =  -3.85508917837290E+00  2.50195598598583E-03
 cg2d: Sum(rhs),rhsMax =  -4.03589978354838E+00  2.51830322714207E-03
 cg2d: Sum(rhs),rhsMax =  -3.87512848498504E+00  2.52047519176675E-03
 cg2d: Sum(rhs),rhsMax =  -3.40600369310518E+00  2.51092921766429E-03
 cg2d: Sum(rhs),rhsMax =  -2.61682444910329E+00  2.58874086402022E-03
 cg2d: Sum(rhs),rhsMax =  -1.83238713542424E+00  2.61669729030029E-03
 cg2d: Sum(rhs),rhsMax =  -1.17513339384160E+00  2.56005945277857E-03
 cg2d: Sum(rhs),rhsMax =  -7.11994626874683E-01  2.47855830259890E-03
 cg2d: Sum(rhs),rhsMax =  -5.26422161484460E-01  2.47042092523170E-03
 cg2d: Sum(rhs),rhsMax =  -6.78930225990118E-01  2.49676870350090E-03
 cg2d: Sum(rhs),rhsMax =  -1.12673723301621E+00  2.53652611516518E-03
 cg2d: Sum(rhs),rhsMax =  -1.75981626801387E+00  2.58504763939027E-03
 cg2d: Sum(rhs),rhsMax =  -2.43940637366409E+00  2.63568090351021E-03
 cg2d: Sum(rhs),rhsMax =  -3.03203011157909E+00  2.68092813881981E-03
 cg2d: Sum(rhs),rhsMax =  -3.40991313610457E+00  2.73286303903293E-03
 cg2d: Sum(rhs),rhsMax =  -3.48046025064741E+00  2.80943922346913E-03
 cg2d: Sum(rhs),rhsMax =  -3.32063074982469E+00  2.84054008606013E-03
 cg2d: Sum(rhs),rhsMax =  -2.96079449544742E+00  2.82589057510548E-03
 cg2d: Sum(rhs),rhsMax =  -2.32992813491706E+00  2.92147974036365E-03
 cg2d: Sum(rhs),rhsMax =  -1.72242458350597E+00  2.94384962186746E-03
 cg2d: Sum(rhs),rhsMax =  -1.21221905680805E+00  2.89157779165094E-03
 cg2d: Sum(rhs),rhsMax =  -8.69698414653337E-01  2.78046456771839E-03
 cg2d: Sum(rhs),rhsMax =  -7.64867826422238E-01  2.63730949366507E-03
 cg2d: Sum(rhs),rhsMax =  -9.31747870945398E-01  2.54529702429858E-03
 cg2d: Sum(rhs),rhsMax =  -1.31074341200294E+00  2.59464767654023E-03
 cg2d: Sum(rhs),rhsMax =  -1.82960845691566E+00  2.67470087283434E-03
 cg2d: Sum(rhs),rhsMax =  -2.36415411923901E+00  2.77096211304050E-03
 cg2d: Sum(rhs),rhsMax =  -2.80794782325312E+00  2.86583705211337E-03
 cg2d: Sum(rhs),rhsMax =  -3.09076540890483E+00  2.94225353282002E-03
 cg2d: Sum(rhs),rhsMax =  -3.17911026851827E+00  2.98708406117381E-03
 cg2d: Sum(rhs),rhsMax =  -3.06968983743292E+00  2.99369700945809E-03
 cg2d: Sum(rhs),rhsMax =  -2.74200034178251E+00  3.00868114923460E-03
 cg2d: Sum(rhs),rhsMax =  -2.22987021666866E+00  3.08320495420421E-03
 cg2d: Sum(rhs),rhsMax =  -1.72892387332002E+00  3.09216601520783E-03
 cg2d: Sum(rhs),rhsMax =  -1.30661129186817E+00  3.03707923150125E-03
 cg2d: Sum(rhs),rhsMax =  -1.02724590668549E+00  2.93201253818449E-03
 cg2d: Sum(rhs),rhsMax =  -9.49612115137862E-01  2.80059567611025E-03
 cg2d: Sum(rhs),rhsMax =  -1.10546684937966E+00  2.68802010840155E-03
 cg2d: Sum(rhs),rhsMax =  -1.41911849418034E+00  2.73183502808241E-03
 cg2d: Sum(rhs),rhsMax =  -1.85263656082816E+00  2.80075122957312E-03
 cg2d: Sum(rhs),rhsMax =  -2.30607109240577E+00  2.88121983276016E-03
 cg2d: Sum(rhs),rhsMax =  -2.69038337165110E+00  2.95745897519091E-03
 cg2d: Sum(rhs),rhsMax =  -2.94313289273815E+00  3.01465308540345E-03
 cg2d: Sum(rhs),rhsMax =  -3.03123928205717E+00  3.04190024733959E-03
 cg2d: Sum(rhs),rhsMax =  -2.94785326599268E+00  3.03433138965020E-03
 cg2d: Sum(rhs),rhsMax =  -2.61356659653364E+00  3.10365976895538E-03
 cg2d: Sum(rhs),rhsMax =  -2.18161321462071E+00  3.16115503835348E-03
 cg2d: Sum(rhs),rhsMax =  -1.75526127514485E+00  3.15966312338851E-03
 cg2d: Sum(rhs),rhsMax =  -1.39603746920979E+00  3.10114911138350E-03
 cg2d: Sum(rhs),rhsMax =  -1.16177143497557E+00  2.99876544426812E-03
 cg2d: Sum(rhs),rhsMax =  -1.10293750715726E+00  2.87411082254835E-03
 cg2d: Sum(rhs),rhsMax =  -1.24975137933037E+00  2.75286353513488E-03
 cg2d: Sum(rhs),rhsMax =  -1.53840873439411E+00  2.75098214478351E-03
 cg2d: Sum(rhs),rhsMax =  -1.91301877258929E+00  2.81271666970093E-03
 cg2d: Sum(rhs),rhsMax =  -2.30705945818319E+00  2.88449379006539E-03
 cg2d: Sum(rhs),rhsMax =  -2.64297558993117E+00  2.95188723400920E-03
 cg2d: Sum(rhs),rhsMax =  -2.86495135556363E+00  3.00154116436078E-03
 cg2d: Sum(rhs),rhsMax =  -2.94238814906167E+00  3.02377923993732E-03
 cg2d: Sum(rhs),rhsMax =  -2.84207317578093E+00  3.04217205738675E-03
 cg2d: Sum(rhs),rhsMax =  -2.51902179857246E+00  3.13830804127994E-03
 cg2d: Sum(rhs),rhsMax =  -2.14123733972331E+00  3.18959322730692E-03
 cg2d: Sum(rhs),rhsMax =  -1.76835922501869E+00  3.18714931793709E-03
 cg2d: Sum(rhs),rhsMax =  -1.45590353014255E+00  3.13272228810627E-03
 cg2d: Sum(rhs),rhsMax =  -1.25508074141043E+00  3.03818417020683E-03
 cg2d: Sum(rhs),rhsMax =  -1.20874907277120E+00  2.92305991946769E-03
 cg2d: Sum(rhs),rhsMax =  -1.34034314158077E+00  2.81059306291312E-03
 cg2d: Sum(rhs),rhsMax =  -1.62624335388472E+00  2.74190570624229E-03
(PID.TID 0000.0001) Did not write pickup because writePickupAtEnd = FALSE
 --> objf_test(bi,bj)   =  0.509071981790236D-01
 --> objf_tracer(bi,bj) =  0.000000000000000D+00
 --> objf_atl(bi,bj)    =  0.000000000000000D+00
  local fc =  0.509071981790236D-01
 global fc =  0.509071981790236D-01
 ph-check fcpertplus =   5.09071981790235537E-002
(PID.TID 0000.0001)  MDS_READ_FIELD: opening file: xx_depth.0000000000.001.001.data
 ph-check fcpertminus =   5.09071982061515965E-002
(PID.TID 0000.0001)  MDS_READ_FIELD: opening file: xx_depth.0000000000.001.001.data
(PID.TID 0000.0001)  MDS_READ_FIELD: opening global file: noWalls.bigRidge
(PID.TID 0000.0001) INI_CG2D: CG2D normalisation factor =  1.9999999999999996E-04
(PID.TID 0000.0001) 
                     ctrl_depth_ini: ctrl update R_low,
                                     adding the control vector.
(PID.TID 0000.0001)  MDS_READ_FIELD: opening file: xx_depth.0000000000.001.001.data
(PID.TID 0000.0001) Start initial hydrostatic pressure computation
(PID.TID 0000.0001) Pressure is predetermined for buoyancyRelation OCEANIC
(PID.TID 0000.0001) 
(PID.TID 0000.0001)  MDS_READ_FIELD: opening global file: windx.sin_y
(PID.TID 0000.0001) // =======================================================
(PID.TID 0000.0001) // Model current state
(PID.TID 0000.0001) // =======================================================
(PID.TID 0000.0001) 
(PID.TID 0000.0001) SOLVE_FOR_PRESSURE: putPmEinXvector =    F
 cg2d: Sum(rhs),rhsMax =   0.00000000000000E+00  0.00000000000000E+00
 cg2d: Sum(rhs),rhsMax =  -2.49999999999996E+01  6.03492218443698E-05
 cg2d: Sum(rhs),rhsMax =  -1.81034404639061E+01  2.18766023587220E-04
 cg2d: Sum(rhs),rhsMax =  -1.54955562832148E+01  4.32479836297444E-04
 cg2d: Sum(rhs),rhsMax =  -1.41111452328576E+01  6.49958988327955E-04
 cg2d: Sum(rhs),rhsMax =  -1.31144322333884E+01  8.30737102820661E-04
 cg2d: Sum(rhs),rhsMax =  -1.21209090327102E+01  9.52510661951503E-04
 cg2d: Sum(rhs),rhsMax =  -1.07124742350430E+01  1.02806631183806E-03
 cg2d: Sum(rhs),rhsMax =  -7.41375936618559E+00  1.27086596341742E-03
 cg2d: Sum(rhs),rhsMax =  -4.70217533441281E+00  1.51019014097721E-03
 cg2d: Sum(rhs),rhsMax =  -2.72440685937730E+00  1.65833738304039E-03
 cg2d: Sum(rhs),rhsMax =  -1.27958669069484E+00  1.70565508803007E-03
 cg2d: Sum(rhs),rhsMax =  -3.29564699366221E-01  1.66071960563785E-03
 cg2d: Sum(rhs),rhsMax =   5.21320404751158E-02  1.54812756075627E-03
 cg2d: Sum(rhs),rhsMax =  -2.86625375037872E-01  1.40338815970414E-03
 cg2d: Sum(rhs),rhsMax =  -1.30315843636025E+00  1.44268599446399E-03
 cg2d: Sum(rhs),rhsMax =  -2.68067690780736E+00  1.50836886390679E-03
 cg2d: Sum(rhs),rhsMax =  -4.07407453962492E+00  1.58424366699683E-03
 cg2d: Sum(rhs),rhsMax =  -5.18272348533181E+00  1.66593592705663E-03
 cg2d: Sum(rhs),rhsMax =  -5.80990598644758E+00  1.74846175263829E-03
 cg2d: Sum(rhs),rhsMax =  -5.87740627684591E+00  1.82725971161582E-03
 cg2d: Sum(rhs),rhsMax =  -5.41358311284118E+00  1.89900434704946E-03
 cg2d: Sum(rhs),rhsMax =  -4.53080676578041E+00  1.96213934605309E-03
 cg2d: Sum(rhs),rhsMax =  -3.22587899059333E+00  2.12611202558487E-03
 cg2d: Sum(rhs),rhsMax =  -2.04447211860622E+00  2.24837953761428E-03
 cg2d: Sum(rhs),rhsMax =  -1.10818137182437E+00  2.30404049213532E-03
 cg2d: Sum(rhs),rhsMax =  -4.90484879116685E-01  2.29576532491249E-03
 cg2d: Sum(rhs),rhsMax =  -2.61247062337555E-01  2.23814842258097E-03
 cg2d: Sum(rhs),rhsMax =  -4.50921967219842E-01  2.26266906809005E-03
 cg2d: Sum(rhs),rhsMax =  -1.00469610519006E+00  2.31946122840591E-03
 cg2d: Sum(rhs),rhsMax =  -1.78565331371171E+00  2.37599941343382E-03
 cg2d: Sum(rhs),rhsMax =  -2.62429308848832E+00  2.42805543156369E-03
 cg2d: Sum(rhs),rhsMax =  -3.35748486738239E+00  2.47123044788864E-03
 cg2d: Sum(rhs),rhsMax =  -3.85508917831571E+00  2.50195598120650E-03
 cg2d: Sum(rhs),rhsMax =  -4.03589978067766E+00  2.51830322377526E-03
 cg2d: Sum(rhs),rhsMax =  -3.87512847844595E+00  2.52047518996987E-03
 cg2d: Sum(rhs),rhsMax =  -3.40600368300692E+00  2.51092921735819E-03
 cg2d: Sum(rhs),rhsMax =  -2.61682441716664E+00  2.58874088430834E-03
 cg2d: Sum(rhs),rhsMax =  -1.83238710858722E+00  2.61669731067728E-03
 cg2d: Sum(rhs),rhsMax =  -1.17513337035660E+00  2.56005947315517E-03
 cg2d: Sum(rhs),rhsMax =  -7.11994611116207E-01  2.47855830217771E-03
 cg2d: Sum(rhs),rhsMax =  -5.26422144154526E-01  2.47042092608614E-03
 cg2d: Sum(rhs),rhsMax =  -6.78930207918891E-01  2.49676870341790E-03
 cg2d: Sum(rhs),rhsMax =  -1.12673721462658E+00  2.53652611410859E-03
 cg2d: Sum(rhs),rhsMax =  -1.75981624978112E+00  2.58504763751991E-03
 cg2d: Sum(rhs),rhsMax =  -2.43940635572936E+00  2.63568090114222E-03
 cg2d: Sum(rhs),rhsMax =  -3.03203009354031E+00  2.68092813636075E-03
 cg2d: Sum(rhs),rhsMax =  -3.40991310097345E+00  2.73286304993669E-03
 cg2d: Sum(rhs),rhsMax =  -3.48046021406901E+00  2.80943923514233E-03
 cg2d: Sum(rhs),rhsMax =  -3.32063071193480E+00  2.84054009867096E-03
 cg2d: Sum(rhs),rhsMax =  -2.96079445651982E+00  2.82589058874168E-03
 cg2d: Sum(rhs),rhsMax =  -2.32992808718598E+00  2.92147976858520E-03
 cg2d: Sum(rhs),rhsMax =  -1.72242454041150E+00  2.94384965033881E-03
 cg2d: Sum(rhs),rhsMax =  -1.21221901648707E+00  2.89157782025329E-03
 cg2d: Sum(rhs),rhsMax =  -8.69698374791736E-01  2.78046459640415E-03
 cg2d: Sum(rhs),rhsMax =  -7.64867784070317E-01  2.63730952245784E-03
 cg2d: Sum(rhs),rhsMax =  -9.31747827894934E-01  2.54529704179327E-03
 cg2d: Sum(rhs),rhsMax =  -1.31074336582848E+00  2.59464769413737E-03
 cg2d: Sum(rhs),rhsMax =  -1.82960840738525E+00  2.67470089050182E-03
 cg2d: Sum(rhs),rhsMax =  -2.36415406667718E+00  2.77096213081610E-03
 cg2d: Sum(rhs),rhsMax =  -2.80794776821665E+00  2.86583707008887E-03
 cg2d: Sum(rhs),rhsMax =  -3.09076535191815E+00  2.94225355111527E-03
 cg2d: Sum(rhs),rhsMax =  -3.17911020998912E+00  2.98708407990636E-03
 cg2d: Sum(rhs),rhsMax =  -3.06968977770077E+00  2.99369702871452E-03
 cg2d: Sum(rhs),rhsMax =  -2.74200027098529E+00  3.00868118156593E-03
 cg2d: Sum(rhs),rhsMax =  -2.22987015135103E+00  3.08320498661495E-03
 cg2d: Sum(rhs),rhsMax =  -1.72892381191507E+00  3.09216604759565E-03
 cg2d: Sum(rhs),rhsMax =  -1.30661123235518E+00  3.03707926381197E-03
 cg2d: Sum(rhs),rhsMax =  -1.02724584662650E+00  2.93201257041968E-03
 cg2d: Sum(rhs),rhsMax =  -9.49612051657290E-01  2.80059570832265E-03
 cg2d: Sum(rhs),rhsMax =  -1.10546678439486E+00  2.68802012965740E-03
 cg2d: Sum(rhs),rhsMax =  -1.41911842645398E+00  2.73183504922708E-03
 cg2d: Sum(rhs),rhsMax =  -1.85263649021498E+00  2.80075125061907E-03
 cg2d: Sum(rhs),rhsMax =  -2.30607101914915E+00  2.88121985377376E-03
 cg2d: Sum(rhs),rhsMax =  -2.69038329613439E+00  2.95745899627506E-03
 cg2d: Sum(rhs),rhsMax =  -2.94313281529360E+00  3.01465310667243E-03
 cg2d: Sum(rhs),rhsMax =  -3.03123920291490E+00  3.04190026889109E-03
 cg2d: Sum(rhs),rhsMax =  -2.94785318533263E+00  3.03433141154056E-03
 cg2d: Sum(rhs),rhsMax =  -2.61356650872819E+00  3.10365980236304E-03
 cg2d: Sum(rhs),rhsMax =  -2.18161313160575E+00  3.16115507143535E-03
 cg2d: Sum(rhs),rhsMax =  -1.75526119521188E+00  3.15966315605625E-03
 cg2d: Sum(rhs),rhsMax =  -1.39603739021426E+00  3.10114914361192E-03
 cg2d: Sum(rhs),rhsMax =  -1.16177135446603E+00  2.99876547610009E-03
 cg2d: Sum(rhs),rhsMax =  -1.10293742248720E+00  2.87411085408671E-03
 cg2d: Sum(rhs),rhsMax =  -1.24975128794029E+00  2.75286356652279E-03
 cg2d: Sum(rhs),rhsMax =  -1.53840864401774E+00  2.75098216605804E-03
 cg2d: Sum(rhs),rhsMax =  -1.91301868044074E+00  2.81271669055438E-03
 cg2d: Sum(rhs),rhsMax =  -2.30705936456053E+00  2.88449381059471E-03
 cg2d: Sum(rhs),rhsMax =  -2.64297549508240E+00  2.95188725435413E-03
 cg2d: Sum(rhs),rhsMax =  -2.86495125956352E+00  3.00154118467576E-03
 cg2d: Sum(rhs),rhsMax =  -2.94238805182318E+00  3.02377926036036E-03
 cg2d: Sum(rhs),rhsMax =  -2.84207306728935E+00  3.04217208972124E-03
 cg2d: Sum(rhs),rhsMax =  -2.51902169550526E+00  3.13830807341095E-03
 cg2d: Sum(rhs),rhsMax =  -2.14123724098287E+00  3.18959325908203E-03
 cg2d: Sum(rhs),rhsMax =  -1.76835912884055E+00  3.18714934924793E-03
 cg2d: Sum(rhs),rhsMax =  -1.45590343437544E+00  3.13272231890954E-03
 cg2d: Sum(rhs),rhsMax =  -1.25508064369973E+00  3.03818420053330E-03
 cg2d: Sum(rhs),rhsMax =  -1.20874897074578E+00  2.92305994941760E-03
 cg2d: Sum(rhs),rhsMax =  -1.34034303317174E+00  2.81059309263876E-03
 cg2d: Sum(rhs),rhsMax =  -1.62624324503085E+00  2.74190572537285E-03
(PID.TID 0000.0001) Did not write pickup because writePickupAtEnd = FALSE
 --> objf_test(bi,bj)   =  0.509071982332795D-01
 --> objf_tracer(bi,bj) =  0.000000000000000D+00
 --> objf_atl(bi,bj)    =  0.000000000000000D+00
  local fc =  0.509071982332795D-01
 global fc =  0.509071982332795D-01
(PID.TID 0000.0001)  MDS_READ_FIELD: opening file: xx_depth.0000000000.001.001.data
grad-res -------------------------------
 grad-res     0    7    4    4    1    1    1    1   0.509071982062E-01 0.509071981790E-01 0.509071982333E-01
 grad-res     0    7    7   19   25    1    1    1   -.271313817958E-06 -.271279665398E-06 0.125878437413E-03
(PID.TID 0000.0001)   ADM  precision_derivative_cost =    5.09071982061516E-02
(PID.TID 0000.0001)   ADM  precision_derivative_grad =   -2.71313817957536E-07
 ph-grd  ierr ---------------------------
 ph-grd  ierr =            0 , icomp =           19 , ichknum =            7
 ph-grd -->hit<--            2           5           1           1
(PID.TID 0000.0001)  MDS_READ_FIELD: opening file: adxx_depth.0000000000.001.001.data
(PID.TID 0000.0001)  MDS_READ_FIELD: opening file: xx_depth.0000000000.001.001.data
(PID.TID 0000.0001)  MDS_READ_FIELD: opening global file: noWalls.bigRidge
(PID.TID 0000.0001) INI_CG2D: CG2D normalisation factor =  1.9999999999999996E-04
(PID.TID 0000.0001) 
                     ctrl_depth_ini: ctrl update R_low,
                                     adding the control vector.
(PID.TID 0000.0001)  MDS_READ_FIELD: opening file: xx_depth.0000000000.001.001.data
(PID.TID 0000.0001) Start initial hydrostatic pressure computation
(PID.TID 0000.0001) Pressure is predetermined for buoyancyRelation OCEANIC
(PID.TID 0000.0001) 
(PID.TID 0000.0001)  MDS_READ_FIELD: opening global file: windx.sin_y
(PID.TID 0000.0001) // =======================================================
(PID.TID 0000.0001) // Model current state
(PID.TID 0000.0001) // =======================================================
(PID.TID 0000.0001) 
(PID.TID 0000.0001) SOLVE_FOR_PRESSURE: putPmEinXvector =    F
 cg2d: Sum(rhs),rhsMax =   0.00000000000000E+00  0.00000000000000E+00
 cg2d: Sum(rhs),rhsMax =  -2.49999999999996E+01  6.03492218443698E-05
 cg2d: Sum(rhs),rhsMax =  -1.81034404639061E+01  2.18766023587220E-04
 cg2d: Sum(rhs),rhsMax =  -1.54955562454974E+01  4.32479837349281E-04
 cg2d: Sum(rhs),rhsMax =  -1.41111451989784E+01  6.49958989883935E-04
 cg2d: Sum(rhs),rhsMax =  -1.31144322099188E+01  8.30737104297132E-04
 cg2d: Sum(rhs),rhsMax =  -1.21209090199114E+01  9.52510662940864E-04
 cg2d: Sum(rhs),rhsMax =  -1.07124742395621E+01  1.02806631138289E-03
 cg2d: Sum(rhs),rhsMax =  -7.41375934553230E+00  1.27086596693103E-03
 cg2d: Sum(rhs),rhsMax =  -4.70217531972486E+00  1.51019014567675E-03
 cg2d: Sum(rhs),rhsMax =  -2.72440685133044E+00  1.65833738798347E-03
 cg2d: Sum(rhs),rhsMax =  -1.27958668785205E+00  1.70565509214149E-03
 cg2d: Sum(rhs),rhsMax =  -3.29564699366841E-01  1.66071960795083E-03
 cg2d: Sum(rhs),rhsMax =   5.21320397392704E-02  1.54812756064207E-03
 cg2d: Sum(rhs),rhsMax =  -2.86625376670736E-01  1.40338815702897E-03
 cg2d: Sum(rhs),rhsMax =  -1.30315843818038E+00  1.44268599388836E-03
 cg2d: Sum(rhs),rhsMax =  -2.68067691170485E+00  1.50836886252887E-03
 cg2d: Sum(rhs),rhsMax =  -4.07407454754406E+00  1.58424366452067E-03
 cg2d: Sum(rhs),rhsMax =  -5.18272349878968E+00  1.66593592325498E-03
 cg2d: Sum(rhs),rhsMax =  -5.80990600559508E+00  1.74846174739240E-03
 cg2d: Sum(rhs),rhsMax =  -5.87740630016174E+00  1.82725970493752E-03
 cg2d: Sum(rhs),rhsMax =  -5.41358313756881E+00  1.89900433908041E-03
 cg2d: Sum(rhs),rhsMax =  -4.53080678884659E+00  1.96213933703993E-03
 cg2d: Sum(rhs),rhsMax =  -3.22587898120441E+00  2.12611203337877E-03
 cg2d: Sum(rhs),rhsMax =  -2.04447211416135E+00  2.24837954547611E-03
 cg2d: Sum(rhs),rhsMax =  -1.10818137182512E+00  2.30404049852829E-03
 cg2d: Sum(rhs),rhsMax =  -4.90484881904269E-01  2.29576532848332E-03
 cg2d: Sum(rhs),rhsMax =  -2.61247066475673E-01  2.23814842241078E-03
 cg2d: Sum(rhs),rhsMax =  -4.50921973876802E-01  2.26266905737759E-03
 cg2d: Sum(rhs),rhsMax =  -1.00469611487271E+00  2.31946121715649E-03
 cg2d: Sum(rhs),rhsMax =  -1.78565332790781E+00  2.37599940124903E-03
 cg2d: Sum(rhs),rhsMax =  -2.62429310835950E+00  2.42805541801236E-03
 cg2d: Sum(rhs),rhsMax =  -3.35748489358152E+00  2.47123043257390E-03
 cg2d: Sum(rhs),rhsMax =  -3.85508921066283E+00  2.50195596382754E-03
 cg2d: Sum(rhs),rhsMax =  -4.03589981787433E+00  2.51830320417301E-03
 cg2d: Sum(rhs),rhsMax =  -3.87512851804447E+00  2.52047516814830E-03
 cg2d: Sum(rhs),rhsMax =  -3.40600372177893E+00  2.51092919347783E-03
 cg2d: Sum(rhs),rhsMax =  -2.61682440381552E+00  2.58874090396559E-03
 cg2d: Sum(rhs),rhsMax =  -1.83238710073217E+00  2.61669733161021E-03
 cg2d: Sum(rhs),rhsMax =  -1.17513336730449E+00  2.56005949576102E-03
 cg2d: Sum(rhs),rhsMax =  -7.11994618860523E-01  2.47855830283833E-03
 cg2d: Sum(rhs),rhsMax =  -5.26422158721391E-01  2.47042089663962E-03
 cg2d: Sum(rhs),rhsMax =  -6.78930224535821E-01  2.49676867347730E-03
 cg2d: Sum(rhs),rhsMax =  -1.12673723672026E+00  2.53652608359691E-03
 cg2d: Sum(rhs),rhsMax =  -1.75981627957806E+00  2.58504760624233E-03
 cg2d: Sum(rhs),rhsMax =  -2.43940639403858E+00  2.63568086882843E-03
 cg2d: Sum(rhs),rhsMax =  -3.03203013986257E+00  2.68092810271948E-03
 cg2d: Sum(rhs),rhsMax =  -3.40991311167120E+00  2.73286304786124E-03
 cg2d: Sum(rhs),rhsMax =  -3.48046022489884E+00  2.80943923275456E-03
 cg2d: Sum(rhs),rhsMax =  -3.32063072300856E+00  2.84054009585212E-03
 cg2d: Sum(rhs),rhsMax =  -2.96079446785044E+00  2.82589058539684E-03
 cg2d: Sum(rhs),rhsMax =  -2.32992807144153E+00  2.92147979784162E-03
 cg2d: Sum(rhs),rhsMax =  -1.72242453051992E+00  2.94384968014432E-03
 cg2d: Sum(rhs),rhsMax =  -1.21221901128006E+00  2.89157785099827E-03
 cg2d: Sum(rhs),rhsMax =  -8.69698372737517E-01  2.78046462837243E-03
 cg2d: Sum(rhs),rhsMax =  -7.64867782672329E-01  2.63730955577408E-03
 cg2d: Sum(rhs),rhsMax =  -9.31747838538496E-01  2.54529703556409E-03
 cg2d: Sum(rhs),rhsMax =  -1.31074337699940E+00  2.59464768770343E-03
 cg2d: Sum(rhs),rhsMax =  -1.82960841921733E+00  2.67470088391949E-03
 cg2d: Sum(rhs),rhsMax =  -2.36415407907343E+00  2.77096212410690E-03
 cg2d: Sum(rhs),rhsMax =  -2.80794778095142E+00  2.86583706323972E-03
 cg2d: Sum(rhs),rhsMax =  -3.09076536474016E+00  2.94225354408572E-03
 cg2d: Sum(rhs),rhsMax =  -3.17911022266026E+00  2.98708407264129E-03
 cg2d: Sum(rhs),rhsMax =  -3.06968978997916E+00  2.99369702115940E-03
 cg2d: Sum(rhs),rhsMax =  -2.74200024242095E+00  3.00868121744766E-03
 cg2d: Sum(rhs),rhsMax =  -2.22987012888683E+00  3.08320502277633E-03
 cg2d: Sum(rhs),rhsMax =  -1.72892379466570E+00  3.09216608440088E-03
 cg2d: Sum(rhs),rhsMax =  -1.30661121911481E+00  3.03707930158572E-03
 cg2d: Sum(rhs),rhsMax =  -1.02724583565179E+00  2.93201260937969E-03
 cg2d: Sum(rhs),rhsMax =  -9.49612040283290E-01  2.80059574853455E-03
 cg2d: Sum(rhs),rhsMax =  -1.10546678987309E+00  2.68802012046908E-03
 cg2d: Sum(rhs),rhsMax =  -1.41911843215058E+00  2.73183504005483E-03
 cg2d: Sum(rhs),rhsMax =  -1.85263649635566E+00  2.80075124149319E-03
 cg2d: Sum(rhs),rhsMax =  -2.30607102567667E+00  2.88121984469183E-03
 cg2d: Sum(rhs),rhsMax =  -2.69038330280976E+00  2.95745898720446E-03
 cg2d: Sum(rhs),rhsMax =  -2.94313282180159E+00  3.01465309755917E-03
 cg2d: Sum(rhs),rhsMax =  -3.03123920891492E+00  3.04190025967318E-03
 cg2d: Sum(rhs),rhsMax =  -2.94785319046070E+00  3.03433140216321E-03
 cg2d: Sum(rhs),rhsMax =  -2.61356646844681E+00  3.10365984469895E-03
 cg2d: Sum(rhs),rhsMax =  -2.18161309675970E+00  3.16115511432400E-03
 cg2d: Sum(rhs),rhsMax =  -1.75526116489957E+00  3.15966319991680E-03
 cg2d: Sum(rhs),rhsMax =  -1.39603736308084E+00  3.10114918879975E-03
 cg2d: Sum(rhs),rhsMax =  -1.16177132852824E+00  2.99876552283592E-03
 cg2d: Sum(rhs),rhsMax =  -1.10293739484981E+00  2.87411090241109E-03
 cg2d: Sum(rhs),rhsMax =  -1.24975125479530E+00  2.75286361628535E-03
 cg2d: Sum(rhs),rhsMax =  -1.53840863760856E+00  2.75098215655648E-03
 cg2d: Sum(rhs),rhsMax =  -1.91301867402317E+00  2.81271668133283E-03
 cg2d: Sum(rhs),rhsMax =  -2.30705935808764E+00  2.88449380164490E-03
 cg2d: Sum(rhs),rhsMax =  -2.64297548831045E+00  2.95188724563039E-03
 cg2d: Sum(rhs),rhsMax =  -2.86495125215654E+00  3.00154117610444E-03
 cg2d: Sum(rhs),rhsMax =  -2.94238804340844E+00  3.02377925185434E-03
 cg2d: Sum(rhs),rhsMax =  -2.84207300218934E+00  3.04217214038597E-03
 cg2d: Sum(rhs),rhsMax =  -2.51902163647197E+00  3.13830812412210E-03
 cg2d: Sum(rhs),rhsMax =  -2.14123718751600E+00  3.18959331027896E-03
 cg2d: Sum(rhs),rhsMax =  -1.76835907973085E+00  3.18714940140448E-03
 cg2d: Sum(rhs),rhsMax =  -1.45590338787448E+00  3.13272237244440E-03
 cg2d: Sum(rhs),rhsMax =  -1.25508059741871E+00  3.03818425573054E-03
 cg2d: Sum(rhs),rhsMax =  -1.20874892148029E+00  2.92306000637271E-03
 cg2d: Sum(rhs),rhsMax =  -1.34034297702418E+00  2.81059315124096E-03
 cg2d: Sum(rhs),rhsMax =  -1.62624321937398E+00  2.74190571720183E-03
(PID.TID 0000.0001) Did not write pickup because writePickupAtEnd = FALSE
 --> objf_test(bi,bj)   =  0.509071986631352D-01
 --> objf_tracer(bi,bj) =  0.000000000000000D+00
 --> objf_atl(bi,bj)    =  0.000000000000000D+00
  local fc =  0.509071986631352D-01
 global fc =  0.509071986631352D-01
 ph-check fcpertplus =   5.09071986631352350E-002
(PID.TID 0000.0001)  MDS_READ_FIELD: opening file: xx_depth.0000000000.001.001.data
 ph-check fcpertminus =   5.09071982061515965E-002
(PID.TID 0000.0001)  MDS_READ_FIELD: opening file: xx_depth.0000000000.001.001.data
(PID.TID 0000.0001)  MDS_READ_FIELD: opening global file: noWalls.bigRidge
(PID.TID 0000.0001) INI_CG2D: CG2D normalisation factor =  1.9999999999999996E-04
(PID.TID 0000.0001) 
                     ctrl_depth_ini: ctrl update R_low,
                                     adding the control vector.
(PID.TID 0000.0001)  MDS_READ_FIELD: opening file: xx_depth.0000000000.001.001.data
(PID.TID 0000.0001) Start initial hydrostatic pressure computation
(PID.TID 0000.0001) Pressure is predetermined for buoyancyRelation OCEANIC
(PID.TID 0000.0001) 
(PID.TID 0000.0001)  MDS_READ_FIELD: opening global file: windx.sin_y
(PID.TID 0000.0001) // =======================================================
(PID.TID 0000.0001) // Model current state
(PID.TID 0000.0001) // =======================================================
(PID.TID 0000.0001) 
(PID.TID 0000.0001) SOLVE_FOR_PRESSURE: putPmEinXvector =    F
 cg2d: Sum(rhs),rhsMax =   0.00000000000000E+00  0.00000000000000E+00
 cg2d: Sum(rhs),rhsMax =  -2.49999999999996E+01  6.03492218443698E-05
 cg2d: Sum(rhs),rhsMax =  -1.81034404639061E+01  2.18766023587220E-04
 cg2d: Sum(rhs),rhsMax =  -1.54955563209322E+01  4.32479835245608E-04
 cg2d: Sum(rhs),rhsMax =  -1.41111452669207E+01  6.49958986762900E-04
 cg2d: Sum(rhs),rhsMax =  -1.31144322566036E+01  8.30737101359654E-04
 cg2d: Sum(rhs),rhsMax =  -1.21209090451661E+01  9.52510660989732E-04
 cg2d: Sum(rhs),rhsMax =  -1.07124742348518E+01  1.02806631188124E-03
 cg2d: Sum(rhs),rhsMax =  -7.41375938778189E+00  1.27086595975040E-03
 cg2d: Sum(rhs),rhsMax =  -4.70217534938327E+00  1.51019013619943E-03
 cg2d: Sum(rhs),rhsMax =  -2.72440686722801E+00  1.65833737821675E-03
 cg2d: Sum(rhs),rhsMax =  -1.27958669309409E+00  1.70565508440121E-03
 cg2d: Sum(rhs),rhsMax =  -3.29564698938261E-01  1.66071960435697E-03
 cg2d: Sum(rhs),rhsMax =   5.21320415915495E-02  1.54812756263057E-03
 cg2d: Sum(rhs),rhsMax =  -2.86625372130355E-01  1.40338816500214E-03
 cg2d: Sum(rhs),rhsMax =  -1.30315842922334E+00  1.44268599986900E-03
 cg2d: Sum(rhs),rhsMax =  -2.68067689428367E+00  1.50836887009623E-03
 cg2d: Sum(rhs),rhsMax =  -4.07407451948680E+00  1.58424367381071E-03
 cg2d: Sum(rhs),rhsMax =  -5.18272346018894E+00  1.66593593432666E-03
 cg2d: Sum(rhs),rhsMax =  -5.80990595896644E+00  1.74846176022314E-03
 cg2d: Sum(rhs),rhsMax =  -5.87740624978950E+00  1.82725971943364E-03
 cg2d: Sum(rhs),rhsMax =  -5.41358308841694E+00  1.89900435510115E-03
 cg2d: Sum(rhs),rhsMax =  -4.53080674542451E+00  1.96213935443190E-03
 cg2d: Sum(rhs),rhsMax =  -3.22587899696535E+00  2.12611202103042E-03
 cg2d: Sum(rhs),rhsMax =  -2.04447212350345E+00  2.24837953204164E-03
 cg2d: Sum(rhs),rhsMax =  -1.10818137429341E+00  2.30404048722129E-03
 cg2d: Sum(rhs),rhsMax =  -4.90484879988457E-01  2.29576532227063E-03
 cg2d: Sum(rhs),rhsMax =  -2.61247062691341E-01  2.23814842346840E-03
 cg2d: Sum(rhs),rhsMax =  -4.50921964766392E-01  2.26266908319262E-03
 cg2d: Sum(rhs),rhsMax =  -1.00469609856806E+00  2.31946124519124E-03
 cg2d: Sum(rhs),rhsMax =  -1.78565330066738E+00  2.37599943183870E-03
 cg2d: Sum(rhs),rhsMax =  -2.62429306802373E+00  2.42805545143746E-03
 cg2d: Sum(rhs),rhsMax =  -3.35748484003532E+00  2.47123046902103E-03
 cg2d: Sum(rhs),rhsMax =  -3.85508914602578E+00  2.50195600336479E-03
 cg2d: Sum(rhs),rhsMax =  -4.03589974635171E+00  2.51830324674432E-03
 cg2d: Sum(rhs),rhsMax =  -3.87512844538652E+00  2.52047521358832E-03
 cg2d: Sum(rhs),rhsMax =  -3.40600365433317E+00  2.51092924154465E-03
 cg2d: Sum(rhs),rhsMax =  -2.61682446245439E+00  2.58874084436298E-03
 cg2d: Sum(rhs),rhsMax =  -1.83238714327927E+00  2.61669726936737E-03
 cg2d: Sum(rhs),rhsMax =  -1.17513339689369E+00  2.56005943017273E-03
 cg2d: Sum(rhs),rhsMax =  -7.11994619130346E-01  2.47855830193829E-03
 cg2d: Sum(rhs),rhsMax =  -5.26422146917573E-01  2.47042095467822E-03
 cg2d: Sum(rhs),rhsMax =  -6.78930209373167E-01  2.49676873344149E-03
 cg2d: Sum(rhs),rhsMax =  -1.12673721092252E+00  2.53652614567684E-03
 cg2d: Sum(rhs),rhsMax =  -1.75981623821691E+00  2.58504767066785E-03
 cg2d: Sum(rhs),rhsMax =  -2.43940633535486E+00  2.63568093582399E-03
 cg2d: Sum(rhs),rhsMax =  -3.03203006525683E+00  2.68092817246107E-03
 cg2d: Sum(rhs),rhsMax =  -3.40991312540681E+00  2.73286304110837E-03
 cg2d: Sum(rhs),rhsMax =  -3.48046023981756E+00  2.80943922585689E-03
 cg2d: Sum(rhs),rhsMax =  -3.32063073875092E+00  2.84054008887895E-03
 cg2d: Sum(rhs),rhsMax =  -2.96079448411676E+00  2.82589057845033E-03
 cg2d: Sum(rhs),rhsMax =  -2.32992815066149E+00  2.92147971110724E-03
 cg2d: Sum(rhs),rhsMax =  -1.72242459339753E+00  2.94384959206196E-03
 cg2d: Sum(rhs),rhsMax =  -1.21221906201506E+00  2.89157776090596E-03
 cg2d: Sum(rhs),rhsMax =  -8.69698416707557E-01  2.78046453575010E-03
 cg2d: Sum(rhs),rhsMax =  -7.64867827820226E-01  2.63730946034882E-03
 cg2d: Sum(rhs),rhsMax =  -9.31747860301841E-01  2.54529703052776E-03
 cg2d: Sum(rhs),rhsMax =  -1.31074340083202E+00  2.59464768297417E-03
 cg2d: Sum(rhs),rhsMax =  -1.82960844508359E+00  2.67470087941667E-03
 cg2d: Sum(rhs),rhsMax =  -2.36415410684278E+00  2.77096211974970E-03
 cg2d: Sum(rhs),rhsMax =  -2.80794781051836E+00  2.86583705896252E-03
 cg2d: Sum(rhs),rhsMax =  -3.09076539608284E+00  2.94225353984955E-03
 cg2d: Sum(rhs),rhsMax =  -3.17911025584718E+00  2.98708406843886E-03
 cg2d: Sum(rhs),rhsMax =  -3.06968982515456E+00  2.99369701701321E-03
 cg2d: Sum(rhs),rhsMax =  -2.74200037034687E+00  3.00868111335288E-03
 cg2d: Sum(rhs),rhsMax =  -2.22987023913288E+00  3.08320491804283E-03
 cg2d: Sum(rhs),rhsMax =  -1.72892389056942E+00  3.09216597840261E-03
 cg2d: Sum(rhs),rhsMax =  -1.30661130510857E+00  3.03707919372751E-03
 cg2d: Sum(rhs),rhsMax =  -1.02724591766022E+00  2.93201249922447E-03
 cg2d: Sum(rhs),rhsMax =  -9.49612126511881E-01  2.80059563589836E-03
 cg2d: Sum(rhs),rhsMax =  -1.10546684390145E+00  2.68802011758987E-03
 cg2d: Sum(rhs),rhsMax =  -1.41911848848375E+00  2.73183503725467E-03
 cg2d: Sum(rhs),rhsMax =  -1.85263655468750E+00  2.80075123869898E-03
 cg2d: Sum(rhs),rhsMax =  -2.30607108587827E+00  2.88121984184208E-03
 cg2d: Sum(rhs),rhsMax =  -2.69038336497576E+00  2.95745898426150E-03
 cg2d: Sum(rhs),rhsMax =  -2.94313288623018E+00  3.01465309451671E-03
 cg2d: Sum(rhs),rhsMax =  -3.03123927605717E+00  3.04190025655753E-03
 cg2d: Sum(rhs),rhsMax =  -2.94785326086463E+00  3.03433139902756E-03
 cg2d: Sum(rhs),rhsMax =  -2.61356663681506E+00  3.10365972661947E-03
 cg2d: Sum(rhs),rhsMax =  -2.18161324946677E+00  3.16115499546486E-03
 cg2d: Sum(rhs),rhsMax =  -1.75526130545719E+00  3.15966307952797E-03
 cg2d: Sum(rhs),rhsMax =  -1.39603749634325E+00  3.10114906619568E-03
 cg2d: Sum(rhs),rhsMax =  -1.16177146091340E+00  2.99876539753230E-03
 cg2d: Sum(rhs),rhsMax =  -1.10293753479469E+00  2.87411077422397E-03
 cg2d: Sum(rhs),rhsMax =  -1.24975141247540E+00  2.75286348537234E-03
 cg2d: Sum(rhs),rhsMax =  -1.53840874080334E+00  2.75098215428508E-03
 cg2d: Sum(rhs),rhsMax =  -1.91301877900690E+00  2.81271667892250E-03
 cg2d: Sum(rhs),rhsMax =  -2.30705946465614E+00  2.88449379901519E-03
 cg2d: Sum(rhs),rhsMax =  -2.64297559670318E+00  2.95188724273291E-03
 cg2d: Sum(rhs),rhsMax =  -2.86495136297063E+00  3.00154117293213E-03
 cg2d: Sum(rhs),rhsMax =  -2.94238815747645E+00  3.02377924844334E-03
 cg2d: Sum(rhs),rhsMax =  -2.84207324088099E+00  3.04217200672202E-03
 cg2d: Sum(rhs),rhsMax =  -2.51902185760581E+00  3.13830799056880E-03
 cg2d: Sum(rhs),rhsMax =  -2.14123739319023E+00  3.18959317611000E-03
 cg2d: Sum(rhs),rhsMax =  -1.76835927412845E+00  3.18714926578055E-03
 cg2d: Sum(rhs),rhsMax =  -1.45590357664358E+00  3.13272223457140E-03
 cg2d: Sum(rhs),rhsMax =  -1.25508078769152E+00  3.03818411500961E-03
 cg2d: Sum(rhs),rhsMax =  -1.20874912203676E+00  2.92305986251257E-03
 cg2d: Sum(rhs),rhsMax =  -1.34034319772840E+00  2.81059300431094E-03
 cg2d: Sum(rhs),rhsMax =  -1.62624337954166E+00  2.74190571441330E-03
(PID.TID 0000.0001) Did not write pickup because writePickupAtEnd = FALSE
 --> objf_test(bi,bj)   =  0.509071977491679D-01
 --> objf_tracer(bi,bj) =  0.000000000000000D+00
 --> objf_atl(bi,bj)    =  0.000000000000000D+00
  local fc =  0.509071977491679D-01
 global fc =  0.509071977491679D-01
(PID.TID 0000.0001)  MDS_READ_FIELD: opening file: xx_depth.0000000000.001.001.data
grad-res -------------------------------
 grad-res     0    8    2    5    1    1    1    1   0.509071982062E-01 0.509071986631E-01 0.509071977492E-01
 grad-res     0    8    8   22   25    1    1    1   0.456977305179E-05 0.456983673125E-05 -.139349282455E-04
(PID.TID 0000.0001)   ADM  precision_derivative_cost =    5.09071982061516E-02
(PID.TID 0000.0001)   ADM  precision_derivative_grad =    4.56977305179009E-06
 ph-grd  ierr ---------------------------
 ph-grd  ierr =            0 , icomp =           22 , ichknum =            8
 ph-grd -->hit<--            5           5           1           1
(PID.TID 0000.0001)  MDS_READ_FIELD: opening file: adxx_depth.0000000000.001.001.data
(PID.TID 0000.0001)  MDS_READ_FIELD: opening file: xx_depth.0000000000.001.001.data
(PID.TID 0000.0001)  MDS_READ_FIELD: opening global file: noWalls.bigRidge
(PID.TID 0000.0001) INI_CG2D: CG2D normalisation factor =  1.9999999999999996E-04
(PID.TID 0000.0001) 
                     ctrl_depth_ini: ctrl update R_low,
                                     adding the control vector.
(PID.TID 0000.0001)  MDS_READ_FIELD: opening file: xx_depth.0000000000.001.001.data
(PID.TID 0000.0001) Start initial hydrostatic pressure computation
(PID.TID 0000.0001) Pressure is predetermined for buoyancyRelation OCEANIC
(PID.TID 0000.0001) 
(PID.TID 0000.0001)  MDS_READ_FIELD: opening global file: windx.sin_y
(PID.TID 0000.0001) // =======================================================
(PID.TID 0000.0001) // Model current state
(PID.TID 0000.0001) // =======================================================
(PID.TID 0000.0001) 
(PID.TID 0000.0001) SOLVE_FOR_PRESSURE: putPmEinXvector =    F
 cg2d: Sum(rhs),rhsMax =   0.00000000000000E+00  0.00000000000000E+00
 cg2d: Sum(rhs),rhsMax =  -2.49999999999996E+01  6.03492218443698E-05
 cg2d: Sum(rhs),rhsMax =  -1.81034404639061E+01  2.18766023587220E-04
 cg2d: Sum(rhs),rhsMax =  -1.54955562832179E+01  4.32479836297444E-04
 cg2d: Sum(rhs),rhsMax =  -1.41111452327970E+01  6.49958988329158E-04
 cg2d: Sum(rhs),rhsMax =  -1.31144322329654E+01  8.30737102842634E-04
 cg2d: Sum(rhs),rhsMax =  -1.21209090321914E+01  9.52510661983327E-04
 cg2d: Sum(rhs),rhsMax =  -1.07124742375994E+01  1.02806631157913E-03
 cg2d: Sum(rhs),rhsMax =  -7.41375936628335E+00  1.27086596337885E-03
 cg2d: Sum(rhs),rhsMax =  -4.70217533429867E+00  1.51019014098280E-03
 cg2d: Sum(rhs),rhsMax =  -2.72440685916947E+00  1.65833738313249E-03
 cg2d: Sum(rhs),rhsMax =  -1.27958669051861E+00  1.70565508826079E-03
 cg2d: Sum(rhs),rhsMax =  -3.29564699351112E-01  1.66071960605867E-03
 cg2d: Sum(rhs),rhsMax =   5.21320402881099E-02  1.54812756140622E-03
 cg2d: Sum(rhs),rhsMax =  -2.86625375151210E-01  1.40338816059652E-03
 cg2d: Sum(rhs),rhsMax =  -1.30315843038135E+00  1.44268600153612E-03
 cg2d: Sum(rhs),rhsMax =  -2.68067689427348E+00  1.50836887181650E-03
 cg2d: Sum(rhs),rhsMax =  -4.07407451850221E+00  1.58424367546264E-03
 cg2d: Sum(rhs),rhsMax =  -5.18272345887801E+00  1.66593593581575E-03
 cg2d: Sum(rhs),rhsMax =  -5.80990595797376E+00  1.74846176150217E-03
 cg2d: Sum(rhs),rhsMax =  -5.87740624943450E+00  1.82725972051473E-03
 cg2d: Sum(rhs),rhsMax =  -5.41358308866275E+00  1.89900435605782E-03
 cg2d: Sum(rhs),rhsMax =  -4.53080674607396E+00  1.96213935539038E-03
 cg2d: Sum(rhs),rhsMax =  -3.22587899452965E+00  2.12611202440854E-03
 cg2d: Sum(rhs),rhsMax =  -2.04447212273046E+00  2.24837953584228E-03
 cg2d: Sum(rhs),rhsMax =  -1.10818137589502E+00  2.30404048985162E-03
 cg2d: Sum(rhs),rhsMax =  -4.90484883237663E-01  2.29576532223561E-03
 cg2d: Sum(rhs),rhsMax =  -2.61247066938832E-01  2.23814841964128E-03
 cg2d: Sum(rhs),rhsMax =  -4.50921968289193E-01  2.26266908708499E-03
 cg2d: Sum(rhs),rhsMax =  -1.00469610136250E+00  2.31946124969568E-03
 cg2d: Sum(rhs),rhsMax =  -1.78565330205616E+00  2.37599943685311E-03
 cg2d: Sum(rhs),rhsMax =  -2.62429306770074E+00  2.42805545683658E-03
 cg2d: Sum(rhs),rhsMax =  -3.35748483815190E+00  2.47123047468096E-03
 cg2d: Sum(rhs),rhsMax =  -3.85508914310424E+00  2.50195600918658E-03
 cg2d: Sum(rhs),rhsMax =  -4.03589974311234E+00  2.51830325267248E-03
 cg2d: Sum(rhs),rhsMax =  -3.87512844258246E+00  2.52047521962130E-03
 cg2d: Sum(rhs),rhsMax =  -3.40600365264361E+00  2.51092924773583E-03
 cg2d: Sum(rhs),rhsMax =  -2.61682447203690E+00  2.58874084155332E-03
 cg2d: Sum(rhs),rhsMax =  -1.83238715287024E+00  2.61669726561024E-03
 cg2d: Sum(rhs),rhsMax =  -1.17513340647813E+00  2.56005942560225E-03
 cg2d: Sum(rhs),rhsMax =  -7.11994629669350E-01  2.47855829380373E-03
 cg2d: Sum(rhs),rhsMax =  -5.26422153819547E-01  2.47042096348155E-03
 cg2d: Sum(rhs),rhsMax =  -6.78930216038380E-01  2.49676874308016E-03
 cg2d: Sum(rhs),rhsMax =  -1.12673721602490E+00  2.53652615617334E-03
 cg2d: Sum(rhs),rhsMax =  -1.75981624070118E+00  2.58504768200446E-03
 cg2d: Sum(rhs),rhsMax =  -2.43940633473099E+00  2.63568094795303E-03
 cg2d: Sum(rhs),rhsMax =  -3.03203006170071E+00  2.68092818531931E-03
 cg2d: Sum(rhs),rhsMax =  -3.40991311078467E+00  2.73286306188882E-03
 cg2d: Sum(rhs),rhsMax =  -3.48046022606726E+00  2.80943924623862E-03
 cg2d: Sum(rhs),rhsMax =  -3.32063072739300E+00  2.84054010874981E-03
 cg2d: Sum(rhs),rhsMax =  -2.96079447614782E+00  2.82589059794301E-03
 cg2d: Sum(rhs),rhsMax =  -2.32992817100249E+00  2.92147970138630E-03
 cg2d: Sum(rhs),rhsMax =  -1.72242461270231E+00  2.94384958142137E-03
 cg2d: Sum(rhs),rhsMax =  -1.21221908079920E+00  2.89157774941399E-03
 cg2d: Sum(rhs),rhsMax =  -8.69698435787064E-01  2.78046452351782E-03
 cg2d: Sum(rhs),rhsMax =  -7.64867848437218E-01  2.63730944750424E-03
 cg2d: Sum(rhs),rhsMax =  -9.31747869380932E-01  2.54529705590214E-03
 cg2d: Sum(rhs),rhsMax =  -1.31074340612929E+00  2.59464770984973E-03
 cg2d: Sum(rhs),rhsMax =  -1.82960844501283E+00  2.67470090748862E-03
 cg2d: Sum(rhs),rhsMax =  -2.36415410144850E+00  2.77096214863125E-03
 cg2d: Sum(rhs),rhsMax =  -2.80794780114905E+00  2.86583708827707E-03
 cg2d: Sum(rhs),rhsMax =  -3.09076538470052E+00  2.94225356931817E-03
 cg2d: Sum(rhs),rhsMax =  -3.17911024445278E+00  2.98708409794451E-03
 cg2d: Sum(rhs),rhsMax =  -3.06968981551281E+00  2.99369704662786E-03
 cg2d: Sum(rhs),rhsMax =  -2.74200040769612E+00  3.00868109588526E-03
 cg2d: Sum(rhs),rhsMax =  -2.22987027404191E+00  3.08320489986549E-03
 cg2d: Sum(rhs),rhsMax =  -1.72892392371613E+00  3.09216595956309E-03
 cg2d: Sum(rhs),rhsMax =  -1.30661133747817E+00  3.03707917430575E-03
 cg2d: Sum(rhs),rhsMax =  -1.02724595058460E+00  2.93201247931643E-03
 cg2d: Sum(rhs),rhsMax =  -9.49612161717906E-01  2.80059561559649E-03
 cg2d: Sum(rhs),rhsMax =  -1.10546685879607E+00  2.68802015606597E-03
 cg2d: Sum(rhs),rhsMax =  -1.41911849918614E+00  2.73183507710069E-03
 cg2d: Sum(rhs),rhsMax =  -1.85263655942643E+00  2.80075127953047E-03
 cg2d: Sum(rhs),rhsMax =  -2.30607108464667E+00  2.88121988326140E-03
 cg2d: Sum(rhs),rhsMax =  -2.69038335916194E+00  2.95745902594565E-03
 cg2d: Sum(rhs),rhsMax =  -2.94313287793005E+00  3.01465313629004E-03
 cg2d: Sum(rhs),rhsMax =  -3.03123926751254E+00  3.04190029843395E-03
 cg2d: Sum(rhs),rhsMax =  -2.94785325418672E+00  3.03433144121312E-03
 cg2d: Sum(rhs),rhsMax =  -2.61356669182189E+00  3.10365970240270E-03
 cg2d: Sum(rhs),rhsMax =  -2.18161330168844E+00  3.16115497067357E-03
 cg2d: Sum(rhs),rhsMax =  -1.75526135584072E+00  3.15966305423553E-03
 cg2d: Sum(rhs),rhsMax =  -1.39603754622524E+00  3.10114904050092E-03
 cg2d: Sum(rhs),rhsMax =  -1.16177151200115E+00  2.99876537154225E-03
 cg2d: Sum(rhs),rhsMax =  -1.10293758913127E+00  2.87411074803498E-03
 cg2d: Sum(rhs),rhsMax =  -1.24975147222171E+00  2.75286345905339E-03
 cg2d: Sum(rhs),rhsMax =  -1.53840875949496E+00  2.75098220915282E-03
 cg2d: Sum(rhs),rhsMax =  -1.91301879076277E+00  2.81271673481238E-03
 cg2d: Sum(rhs),rhsMax =  -2.30705946942142E+00  2.88449385548845E-03
 cg2d: Sum(rhs),rhsMax =  -2.64297559605613E+00  2.95188729945055E-03
 cg2d: Sum(rhs),rhsMax =  -2.86495135937581E+00  3.00154122972348E-03
 cg2d: Sum(rhs),rhsMax =  -2.94238815365616E+00  3.02377930534082E-03
 cg2d: Sum(rhs),rhsMax =  -2.84207331970728E+00  3.04217197861131E-03
 cg2d: Sum(rhs),rhsMax =  -2.51902193284404E+00  3.13830796198609E-03
 cg2d: Sum(rhs),rhsMax =  -2.14123746551888E+00  3.18959314707759E-03
 cg2d: Sum(rhs),rhsMax =  -1.76835934478538E+00  3.18714923635667E-03
 cg2d: Sum(rhs),rhsMax =  -1.45590364727599E+00  3.13272220484002E-03
 cg2d: Sum(rhs),rhsMax =  -1.25508086028057E+00  3.03818408506544E-03
 cg2d: Sum(rhs),rhsMax =  -1.20874919878990E+00  2.92305983244464E-03
 cg2d: Sum(rhs),rhsMax =  -1.34034328078912E+00  2.81059297418776E-03
 cg2d: Sum(rhs),rhsMax =  -1.62624341006294E+00  2.74190578476217E-03
(PID.TID 0000.0001) Did not write pickup because writePickupAtEnd = FALSE
 --> objf_test(bi,bj)   =  0.509071969914177D-01
 --> objf_tracer(bi,bj) =  0.000000000000000D+00
 --> objf_atl(bi,bj)    =  0.000000000000000D+00
  local fc =  0.509071969914177D-01
 global fc =  0.509071969914177D-01
 ph-check fcpertplus =   5.09071969914176789E-002
(PID.TID 0000.0001)  MDS_READ_FIELD: opening file: xx_depth.0000000000.001.001.data
 ph-check fcpertminus =   5.09071982061515965E-002
(PID.TID 0000.0001)  MDS_READ_FIELD: opening file: xx_depth.0000000000.001.001.data
(PID.TID 0000.0001)  MDS_READ_FIELD: opening global file: noWalls.bigRidge
(PID.TID 0000.0001) INI_CG2D: CG2D normalisation factor =  1.9999999999999996E-04
(PID.TID 0000.0001) 
                     ctrl_depth_ini: ctrl update R_low,
                                     adding the control vector.
(PID.TID 0000.0001)  MDS_READ_FIELD: opening file: xx_depth.0000000000.001.001.data
(PID.TID 0000.0001) Start initial hydrostatic pressure computation
(PID.TID 0000.0001) Pressure is predetermined for buoyancyRelation OCEANIC
(PID.TID 0000.0001) 
(PID.TID 0000.0001)  MDS_READ_FIELD: opening global file: windx.sin_y
(PID.TID 0000.0001) // =======================================================
(PID.TID 0000.0001) // Model current state
(PID.TID 0000.0001) // =======================================================
(PID.TID 0000.0001) 
(PID.TID 0000.0001) SOLVE_FOR_PRESSURE: putPmEinXvector =    F
 cg2d: Sum(rhs),rhsMax =   0.00000000000000E+00  0.00000000000000E+00
 cg2d: Sum(rhs),rhsMax =  -2.49999999999996E+01  6.03492218443698E-05
 cg2d: Sum(rhs),rhsMax =  -1.81034404639061E+01  2.18766023587220E-04
 cg2d: Sum(rhs),rhsMax =  -1.54955562832117E+01  4.32479836297444E-04
 cg2d: Sum(rhs),rhsMax =  -1.41111452331021E+01  6.49958988317677E-04
 cg2d: Sum(rhs),rhsMax =  -1.31144322335569E+01  8.30737102814148E-04
 cg2d: Sum(rhs),rhsMax =  -1.21209090328860E+01  9.52510661947267E-04
 cg2d: Sum(rhs),rhsMax =  -1.07124742368145E+01  1.02806631168500E-03
 cg2d: Sum(rhs),rhsMax =  -7.41375936703085E+00  1.27086596330257E-03
 cg2d: Sum(rhs),rhsMax =  -4.70217533480946E+00  1.51019014089337E-03
 cg2d: Sum(rhs),rhsMax =  -2.72440685938895E+00  1.65833738306773E-03
 cg2d: Sum(rhs),rhsMax =  -1.27958669042753E+00  1.70565508828189E-03
 cg2d: Sum(rhs),rhsMax =  -3.29564698953969E-01  1.66071960624912E-03
 cg2d: Sum(rhs),rhsMax =   5.21320410427274E-02  1.54812756186641E-03
 cg2d: Sum(rhs),rhsMax =  -2.86625373649864E-01  1.40338816143459E-03
 cg2d: Sum(rhs),rhsMax =  -1.30315843702236E+00  1.44268599222124E-03
 cg2d: Sum(rhs),rhsMax =  -2.68067691171502E+00  1.50836886080861E-03
 cg2d: Sum(rhs),rhsMax =  -4.07407454852864E+00  1.58424366286874E-03
 cg2d: Sum(rhs),rhsMax =  -5.18272350010063E+00  1.66593592176588E-03
 cg2d: Sum(rhs),rhsMax =  -5.80990600658771E+00  1.74846174611339E-03
 cg2d: Sum(rhs),rhsMax =  -5.87740630051674E+00  1.82725970385644E-03
 cg2d: Sum(rhs),rhsMax =  -5.41358313732307E+00  1.89900433812373E-03
 cg2d: Sum(rhs),rhsMax =  -4.53080678819712E+00  1.96213933608146E-03
 cg2d: Sum(rhs),rhsMax =  -3.22587898364013E+00  2.12611203000066E-03
 cg2d: Sum(rhs),rhsMax =  -2.04447211493434E+00  2.24837954167548E-03
 cg2d: Sum(rhs),rhsMax =  -1.10818137022354E+00  2.30404049589795E-03
 cg2d: Sum(rhs),rhsMax =  -4.90484878655074E-01  2.29576532851833E-03
 cg2d: Sum(rhs),rhsMax =  -2.61247062228194E-01  2.23814842623790E-03
 cg2d: Sum(rhs),rhsMax =  -4.50921970354010E-01  2.26266905348524E-03
 cg2d: Sum(rhs),rhsMax =  -1.00469611207828E+00  2.31946121265206E-03
 cg2d: Sum(rhs),rhsMax =  -1.78565332651903E+00  2.37599939623463E-03
 cg2d: Sum(rhs),rhsMax =  -2.62429310868249E+00  2.42805541261326E-03
 cg2d: Sum(rhs),rhsMax =  -3.35748489546495E+00  2.47123042691396E-03
 cg2d: Sum(rhs),rhsMax =  -3.85508921358438E+00  2.50195595800576E-03
 cg2d: Sum(rhs),rhsMax =  -4.03589982111369E+00  2.51830319824486E-03
 cg2d: Sum(rhs),rhsMax =  -3.87512852084855E+00  2.52047516211531E-03
 cg2d: Sum(rhs),rhsMax =  -3.40600372346851E+00  2.51092918728666E-03
 cg2d: Sum(rhs),rhsMax =  -2.61682439423302E+00  2.58874090677525E-03
 cg2d: Sum(rhs),rhsMax =  -1.83238709114123E+00  2.61669733536733E-03
 cg2d: Sum(rhs),rhsMax =  -1.17513335772006E+00  2.56005950033149E-03
 cg2d: Sum(rhs),rhsMax =  -7.11994608321535E-01  2.47855831097287E-03
 cg2d: Sum(rhs),rhsMax =  -5.26422151819433E-01  2.47042088783630E-03
 cg2d: Sum(rhs),rhsMax =  -6.78930217870626E-01  2.49676866383864E-03
 cg2d: Sum(rhs),rhsMax =  -1.12673723161789E+00  2.53652607310043E-03
 cg2d: Sum(rhs),rhsMax =  -1.75981627709381E+00  2.58504759490572E-03
 cg2d: Sum(rhs),rhsMax =  -2.43940639466246E+00  2.63568085669941E-03
 cg2d: Sum(rhs),rhsMax =  -3.03203014341872E+00  2.68092808986124E-03
 cg2d: Sum(rhs),rhsMax =  -3.40991312629334E+00  2.73286302708080E-03
 cg2d: Sum(rhs),rhsMax =  -3.48046023864915E+00  2.80943921237284E-03
 cg2d: Sum(rhs),rhsMax =  -3.32063073436649E+00  2.84054007598128E-03
 cg2d: Sum(rhs),rhsMax =  -2.96079447581943E+00  2.82589056590416E-03
 cg2d: Sum(rhs),rhsMax =  -2.32992805110057E+00  2.92147980756256E-03
 cg2d: Sum(rhs),rhsMax =  -1.72242451121518E+00  2.94384969078491E-03
 cg2d: Sum(rhs),rhsMax =  -1.21221899249595E+00  2.89157786249023E-03
 cg2d: Sum(rhs),rhsMax =  -8.69698353658041E-01  2.78046464060472E-03
 cg2d: Sum(rhs),rhsMax =  -7.64867762055366E-01  2.63730956861868E-03
 cg2d: Sum(rhs),rhsMax =  -9.31747829459433E-01  2.54529701018972E-03
 cg2d: Sum(rhs),rhsMax =  -1.31074337170217E+00  2.59464766082787E-03
 cg2d: Sum(rhs),rhsMax =  -1.82960841928811E+00  2.67470085584755E-03
 cg2d: Sum(rhs),rhsMax =  -2.36415408446772E+00  2.77096209522536E-03
 cg2d: Sum(rhs),rhsMax =  -2.80794779032075E+00  2.86583703392517E-03
 cg2d: Sum(rhs),rhsMax =  -3.09076537612251E+00  2.94225351461710E-03
 cg2d: Sum(rhs),rhsMax =  -3.17911023405465E+00  2.98708404313567E-03
 cg2d: Sum(rhs),rhsMax =  -3.06968979962092E+00  2.99369699154474E-03
 cg2d: Sum(rhs),rhsMax =  -2.74200020507170E+00  3.00868123491531E-03
 cg2d: Sum(rhs),rhsMax =  -2.22987009397781E+00  3.08320504095368E-03
 cg2d: Sum(rhs),rhsMax =  -1.72892376151899E+00  3.09216610324040E-03
 cg2d: Sum(rhs),rhsMax =  -1.30661118674522E+00  3.03707932100747E-03
 cg2d: Sum(rhs),rhsMax =  -1.02724580272742E+00  2.93201262928774E-03
 cg2d: Sum(rhs),rhsMax =  -9.49612005077289E-01  2.80059576883642E-03
 cg2d: Sum(rhs),rhsMax =  -1.10546677497849E+00  2.68802008199298E-03
 cg2d: Sum(rhs),rhsMax =  -1.41911842144823E+00  2.73183500020880E-03
 cg2d: Sum(rhs),rhsMax =  -1.85263649161676E+00  2.80075120066172E-03
 cg2d: Sum(rhs),rhsMax =  -2.30607102690830E+00  2.88121980327252E-03
 cg2d: Sum(rhs),rhsMax =  -2.69038330862359E+00  2.95745894552033E-03
 cg2d: Sum(rhs),rhsMax =  -2.94313283010174E+00  3.01465305578585E-03
 cg2d: Sum(rhs),rhsMax =  -3.03123921745958E+00  3.04190021779675E-03
 cg2d: Sum(rhs),rhsMax =  -2.94785319713862E+00  3.03433135997766E-03
 cg2d: Sum(rhs),rhsMax =  -2.61356641344000E+00  3.10365986891571E-03
 cg2d: Sum(rhs),rhsMax =  -2.18161304453804E+00  3.16115513911531E-03
 cg2d: Sum(rhs),rhsMax =  -1.75526111451605E+00  3.15966322520926E-03
 cg2d: Sum(rhs),rhsMax =  -1.39603731319886E+00  3.10114921449451E-03
 cg2d: Sum(rhs),rhsMax =  -1.16177127744051E+00  2.99876554882597E-03
 cg2d: Sum(rhs),rhsMax =  -1.10293734051325E+00  2.87411092860009E-03
 cg2d: Sum(rhs),rhsMax =  -1.24975119504901E+00  2.75286364260430E-03
 cg2d: Sum(rhs),rhsMax =  -1.53840861891695E+00  2.75098210168873E-03
 cg2d: Sum(rhs),rhsMax =  -1.91301866226730E+00  2.81271662544294E-03
 cg2d: Sum(rhs),rhsMax =  -2.30705935332236E+00  2.88449374517164E-03
 cg2d: Sum(rhs),rhsMax =  -2.64297548895750E+00  2.95188718891276E-03
 cg2d: Sum(rhs),rhsMax =  -2.86495125575140E+00  3.00154111931306E-03
 cg2d: Sum(rhs),rhsMax =  -2.94238804722870E+00  3.02377919495688E-03
 cg2d: Sum(rhs),rhsMax =  -2.84207292336307E+00  3.04217216849669E-03
 cg2d: Sum(rhs),rhsMax =  -2.51902156123375E+00  3.13830815270480E-03
 cg2d: Sum(rhs),rhsMax =  -2.14123711518736E+00  3.18959333931137E-03
 cg2d: Sum(rhs),rhsMax =  -1.76835900907392E+00  3.18714943082836E-03
 cg2d: Sum(rhs),rhsMax =  -1.45590331724207E+00  3.13272240217579E-03
 cg2d: Sum(rhs),rhsMax =  -1.25508052482965E+00  3.03818428567470E-03
 cg2d: Sum(rhs),rhsMax =  -1.20874884472714E+00  2.92306003644064E-03
 cg2d: Sum(rhs),rhsMax =  -1.34034289396345E+00  2.81059318136414E-03
 cg2d: Sum(rhs),rhsMax =  -1.62624318885268E+00  2.74190564685295E-03
(PID.TID 0000.0001) Did not write pickup because writePickupAtEnd = FALSE
 --> objf_test(bi,bj)   =  0.509071994208853D-01
 --> objf_tracer(bi,bj) =  0.000000000000000D+00
 --> objf_atl(bi,bj)    =  0.000000000000000D+00
  local fc =  0.509071994208853D-01
 global fc =  0.509071994208853D-01
(PID.TID 0000.0001)  MDS_READ_FIELD: opening file: xx_depth.0000000000.001.001.data
grad-res -------------------------------
 grad-res     0    9    5    5    1    1    1    1   0.509071982062E-01 0.509071969914E-01 0.509071994209E-01
 grad-res     0    9    9   25   25    1    1    1   -.121476685757E-04 -.121473383435E-04 0.271848210298E-04
(PID.TID 0000.0001)   ADM  precision_derivative_cost =    5.09071982061516E-02
(PID.TID 0000.0001)   ADM  precision_derivative_grad =   -1.21476685757339E-05
 ph-grd  ierr ---------------------------
 ph-grd  ierr =            0 , icomp =           25 , ichknum =            9
(PID.TID 0000.0001) 
(PID.TID 0000.0001) // =======================================================
(PID.TID 0000.0001) // Gradient check results  >>> START <<<
(PID.TID 0000.0001) // =======================================================
(PID.TID 0000.0001) 
(PID.TID 0000.0001)  EPS =   1.000000E-04
(PID.TID 0000.0001) 
(PID.TID 0000.0001) grdchk output h.p:  Id  Itile Jtile LAYER   X(Id)            X(Id)+/-EPS
(PID.TID 0000.0001) grdchk output h.c:  Id  FC                   FC1                  FC2
(PID.TID 0000.0001) grdchk output h.g:  Id     FC1-FC2/(2*EPS)      ADJ GRAD(FC)         1-FDGRD/ADGRD
(PID.TID 0000.0001) 
(PID.TID 0000.0001) grdchk output (p):   1     1     1     1    0.000000000E+00 -1.000000000E-04
(PID.TID 0000.0001) grdchk output (c):   1  5.0907198206152E-02  5.0907198955527E-02  5.0907197456776E-02
(PID.TID 0000.0001) grdchk output (g):   1     7.4937558242061E-06  7.4935737179788E-06 -2.4301652872483E-05
(PID.TID 0000.0001) 
(PID.TID 0000.0001) grdchk output (p):   2     4     1     1    0.000000000E+00 -1.000000000E-04
(PID.TID 0000.0001) grdchk output (c):   2  5.0907198206152E-02  5.0907198252350E-02  5.0907198159954E-02
(PID.TID 0000.0001) grdchk output (g):   2     4.6198041919743E-07  4.6191714010875E-07 -1.3699229403596E-04
(PID.TID 0000.0001) 
(PID.TID 0000.0001) grdchk output (p):   3     2     2     1    0.000000000E+00 -1.000000000E-04
(PID.TID 0000.0001) grdchk output (c):   3  5.0907198206152E-02  5.0907198237966E-02  5.0907198174337E-02
(PID.TID 0000.0001) grdchk output (g):   3     3.1814478135272E-07  3.1814460098814E-07 -5.6692644379019E-07
(PID.TID 0000.0001) 
(PID.TID 0000.0001) grdchk output (p):   4     5     2     1    0.000000000E+00 -1.000000000E-04
(PID.TID 0000.0001) grdchk output (c):   4  5.0907198206152E-02  5.0907198315298E-02  5.0907198097005E-02
(PID.TID 0000.0001) grdchk output (g):   4     1.0914603942869E-06  1.0915714630728E-06  1.0175127298717E-04
(PID.TID 0000.0001) 
(PID.TID 0000.0001) grdchk output (p):   5     3     3     1    0.000000000E+00 -1.000000000E-04
(PID.TID 0000.0001) grdchk output (c):   5  5.0907198206152E-02  5.0907198507285E-02  5.0907197905018E-02
(PID.TID 0000.0001) grdchk output (g):   5     3.0113396845555E-06  3.0137641541715E-06  8.0446560912451E-04
(PID.TID 0000.0001) 
(PID.TID 0000.0001) grdchk output (p):   6     1     4     1    0.000000000E+00 -1.000000000E-04
(PID.TID 0000.0001) grdchk output (c):   6  5.0907198206152E-02  5.0907198224081E-02  5.0907198188222E-02
(PID.TID 0000.0001) grdchk output (g):   6     1.7929033258035E-07  1.7922860365284E-07 -3.4441448658695E-04
(PID.TID 0000.0001) 
(PID.TID 0000.0001) grdchk output (p):   7     4     4     1    0.000000000E+00 -1.000000000E-04
(PID.TID 0000.0001) grdchk output (c):   7  5.0907198206152E-02  5.0907198179024E-02  5.0907198233279E-02
(PID.TID 0000.0001) grdchk output (g):   7    -2.7127966539808E-07 -2.7131381795754E-07  1.2587843741296E-04
(PID.TID 0000.0001) 
(PID.TID 0000.0001) grdchk output (p):   8     2     5     1    0.000000000E+00 -1.000000000E-04
(PID.TID 0000.0001) grdchk output (c):   8  5.0907198206152E-02  5.0907198663135E-02  5.0907197749168E-02
(PID.TID 0000.0001) grdchk output (g):   8     4.5698367312497E-06  4.5697730517901E-06 -1.3934928245529E-05
(PID.TID 0000.0001) 
(PID.TID 0000.0001) grdchk output (p):   9     5     5     1    0.000000000E+00 -1.000000000E-04
(PID.TID 0000.0001) grdchk output (c):   9  5.0907198206152E-02  5.0907196991418E-02  5.0907199420885E-02
(PID.TID 0000.0001) grdchk output (g):   9    -1.2147338343538E-05 -1.2147668575734E-05  2.7184821029813E-05
(PID.TID 0000.0001) 
(PID.TID 0000.0001) // =======================================================
(PID.TID 0000.0001) // Gradient check results  >>> END <<<
(PID.TID 0000.0001) // =======================================================
(PID.TID 0000.0001) 
(PID.TID 0000.0001)   Seconds in section "ALL                    [THE_MODEL_MAIN]":
(PID.TID 0000.0001)           User time:   6.4800000000000004
(PID.TID 0000.0001)         System time:  4.00000000000000008E-002
(PID.TID 0000.0001)     Wall clock time:   6.5513210296630859
(PID.TID 0000.0001)          No. starts:           1
(PID.TID 0000.0001)           No. stops:           1
(PID.TID 0000.0001)   Seconds in section "INITIALISE_FIXED       [THE_MODEL_MAIN]":
(PID.TID 0000.0001)           User time:  2.00000000000000004E-002
(PID.TID 0000.0001)         System time:   0.0000000000000000
(PID.TID 0000.0001)     Wall clock time:  2.84030437469482422E-002
(PID.TID 0000.0001)          No. starts:           1
(PID.TID 0000.0001)           No. stops:           1
(PID.TID 0000.0001)   Seconds in section "ADTHE_MAIN_LOOP          [ADJOINT RUN]":
(PID.TID 0000.0001)           User time:   1.9099999999999999
(PID.TID 0000.0001)         System time:  1.00000000000000002E-002
(PID.TID 0000.0001)     Wall clock time:   1.9250900745391846
(PID.TID 0000.0001)          No. starts:           1
(PID.TID 0000.0001)           No. stops:           1
(PID.TID 0000.0001)   Seconds in section "LOAD_FIELDS_DRIVER  [FORWARD_STEP]":
(PID.TID 0000.0001)           User time:  3.00000000000011369E-002
(PID.TID 0000.0001)         System time:   0.0000000000000000
(PID.TID 0000.0001)     Wall clock time:  5.28402328491210938E-002
(PID.TID 0000.0001)          No. starts:        2000
(PID.TID 0000.0001)           No. stops:        2000
(PID.TID 0000.0001)   Seconds in section "EXTERNAL_FLDS_LOAD [LOAD_FLDS_DRIVER]":
(PID.TID 0000.0001)           User time:  9.99999999999978684E-003
(PID.TID 0000.0001)         System time:   0.0000000000000000
(PID.TID 0000.0001)     Wall clock time:  1.95224285125732422E-002
(PID.TID 0000.0001)          No. starts:        2200
(PID.TID 0000.0001)           No. stops:        2200
(PID.TID 0000.0001)   Seconds in section "DO_ATMOSPHERIC_PHYS [FORWARD_STEP]":
(PID.TID 0000.0001)           User time:  2.99999999999993605E-002
(PID.TID 0000.0001)         System time:   0.0000000000000000
(PID.TID 0000.0001)     Wall clock time:  1.77145004272460938E-002
(PID.TID 0000.0001)          No. starts:        2000
(PID.TID 0000.0001)           No. stops:        2000
(PID.TID 0000.0001)   Seconds in section "DO_OCEANIC_PHYS     [FORWARD_STEP]":
(PID.TID 0000.0001)           User time:  0.29999999999999361
(PID.TID 0000.0001)         System time:   0.0000000000000000
(PID.TID 0000.0001)     Wall clock time:  0.24555373191833496
(PID.TID 0000.0001)          No. starts:        2000
(PID.TID 0000.0001)           No. stops:        2000
(PID.TID 0000.0001)   Seconds in section "THERMODYNAMICS      [FORWARD_STEP]":
(PID.TID 0000.0001)           User time:   1.0799999999999859
(PID.TID 0000.0001)         System time:   0.0000000000000000
(PID.TID 0000.0001)     Wall clock time:  0.99798703193664551
(PID.TID 0000.0001)          No. starts:        2000
(PID.TID 0000.0001)           No. stops:        2000
(PID.TID 0000.0001)   Seconds in section "DYNAMICS            [FORWARD_STEP]":
(PID.TID 0000.0001)           User time:   2.3999999999999728
(PID.TID 0000.0001)         System time:   0.0000000000000000
(PID.TID 0000.0001)     Wall clock time:   2.1913363933563232
(PID.TID 0000.0001)          No. starts:        2000
(PID.TID 0000.0001)           No. stops:        2000
(PID.TID 0000.0001)   Seconds in section "SOLVE_FOR_PRESSURE  [FORWARD_STEP]":
(PID.TID 0000.0001)           User time:  0.50999999999999801
(PID.TID 0000.0001)         System time:   0.0000000000000000
(PID.TID 0000.0001)     Wall clock time:  0.70900034904479980
(PID.TID 0000.0001)          No. starts:        2000
(PID.TID 0000.0001)           No. stops:        2000
(PID.TID 0000.0001)   Seconds in section "MOM_CORRECTION_STEP [FORWARD_STEP]":
(PID.TID 0000.0001)           User time:  0.10000000000000053
(PID.TID 0000.0001)         System time:  1.00000000000000019E-002
(PID.TID 0000.0001)     Wall clock time:  0.14521002769470215
(PID.TID 0000.0001)          No. starts:        2000
(PID.TID 0000.0001)           No. stops:        2000
(PID.TID 0000.0001)   Seconds in section "TRC_CORRECTION_STEP [FORWARD_STEP]":
(PID.TID 0000.0001)           User time:  1.99999999999995737E-002
(PID.TID 0000.0001)         System time:   0.0000000000000000
(PID.TID 0000.0001)     Wall clock time:  4.89764213562011719E-002
(PID.TID 0000.0001)          No. starts:        2000
(PID.TID 0000.0001)           No. stops:        2000
(PID.TID 0000.0001)   Seconds in section "BLOCKING_EXCHANGES  [FORWARD_STEP]":
(PID.TID 0000.0001)           User time:  0.10999999999999854
(PID.TID 0000.0001)         System time:   0.0000000000000000
(PID.TID 0000.0001)     Wall clock time:  0.17432022094726563
(PID.TID 0000.0001)          No. starts:        2000
(PID.TID 0000.0001)           No. stops:        2000
(PID.TID 0000.0001)   Seconds in section "DO_STATEVARS_TAVE   [FORWARD_STEP]":
(PID.TID 0000.0001)           User time:   0.0000000000000000
(PID.TID 0000.0001)         System time:   0.0000000000000000
(PID.TID 0000.0001)     Wall clock time:  1.83680057525634766E-002
(PID.TID 0000.0001)          No. starts:        2000
(PID.TID 0000.0001)           No. stops:        2000
(PID.TID 0000.0001)   Seconds in section "MONITOR             [FORWARD_STEP]":
(PID.TID 0000.0001)           User time:  9.99999999999978684E-003
(PID.TID 0000.0001)         System time:   0.0000000000000000
(PID.TID 0000.0001)     Wall clock time:  2.32653617858886719E-002
(PID.TID 0000.0001)          No. starts:        2000
(PID.TID 0000.0001)           No. stops:        2000
(PID.TID 0000.0001)   Seconds in section "COST_TILE           [FORWARD_STEP]":
(PID.TID 0000.0001)           User time:  4.99999999999998224E-002
(PID.TID 0000.0001)         System time:   0.0000000000000000
(PID.TID 0000.0001)     Wall clock time:  8.50658416748046875E-002
(PID.TID 0000.0001)          No. starts:        2000
(PID.TID 0000.0001)           No. stops:        2000
(PID.TID 0000.0001)   Seconds in section "DO_THE_MODEL_IO     [FORWARD_STEP]":
(PID.TID 0000.0001)           User time:   0.0000000000000000
(PID.TID 0000.0001)         System time:   0.0000000000000000
(PID.TID 0000.0001)     Wall clock time:  1.93545818328857422E-002
(PID.TID 0000.0001)          No. starts:        2000
(PID.TID 0000.0001)           No. stops:        2000
(PID.TID 0000.0001)   Seconds in section "DO_WRITE_PICKUP     [FORWARD_STEP]":
(PID.TID 0000.0001)           User time:  1.99999999999995737E-002
(PID.TID 0000.0001)         System time:   0.0000000000000000
(PID.TID 0000.0001)     Wall clock time:  1.91988945007324219E-002
(PID.TID 0000.0001)          No. starts:        2000
(PID.TID 0000.0001)           No. stops:        2000
(PID.TID 0000.0001)   Seconds in section "CTRL_PACK           [THE_MODEL_MAIN]":
(PID.TID 0000.0001)           User time:   0.0000000000000000
(PID.TID 0000.0001)         System time:   0.0000000000000000
(PID.TID 0000.0001)     Wall clock time:  4.94956970214843750E-004
(PID.TID 0000.0001)          No. starts:           1
(PID.TID 0000.0001)           No. stops:           1
(PID.TID 0000.0001)   Seconds in section "CTRL_PACK     [THE_MODEL_MAIN]":
(PID.TID 0000.0001)           User time:   0.0000000000000000
(PID.TID 0000.0001)         System time:   0.0000000000000000
(PID.TID 0000.0001)     Wall clock time:  4.26054000854492188E-004
(PID.TID 0000.0001)          No. starts:           1
(PID.TID 0000.0001)           No. stops:           1
(PID.TID 0000.0001)   Seconds in section "GRDCHK_MAIN         [THE_MODEL_MAIN]":
(PID.TID 0000.0001)           User time:   4.5500000000000007
(PID.TID 0000.0001)         System time:  2.99999999999999989E-002
(PID.TID 0000.0001)     Wall clock time:   4.5968189239501953
(PID.TID 0000.0001)          No. starts:           1
(PID.TID 0000.0001)           No. stops:           1
(PID.TID 0000.0001)   Seconds in section "INITIALISE_VARIA    [THE_MAIN_LOOP]":
(PID.TID 0000.0001)           User time:  1.99999999999995737E-002
(PID.TID 0000.0001)         System time:   0.0000000000000000
(PID.TID 0000.0001)     Wall clock time:  2.48725414276123047E-002
(PID.TID 0000.0001)          No. starts:          18
(PID.TID 0000.0001)           No. stops:          18
(PID.TID 0000.0001)   Seconds in section "MAIN LOOP           [THE_MAIN_LOOP]":
(PID.TID 0000.0001)           User time:   4.5100000000000016
(PID.TID 0000.0001)         System time:  2.99999999999999920E-002
(PID.TID 0000.0001)     Wall clock time:   4.5652978420257568
(PID.TID 0000.0001)          No. starts:          18
(PID.TID 0000.0001)           No. stops:          18
(PID.TID 0000.0001)   Seconds in section "FORWARD_STEP        [THE_MAIN_LOOP]":
(PID.TID 0000.0001)           User time:   4.4600000000000142
(PID.TID 0000.0001)         System time:  2.99999999999999920E-002
(PID.TID 0000.0001)     Wall clock time:   4.5149719715118408
(PID.TID 0000.0001)          No. starts:        1800
(PID.TID 0000.0001)           No. stops:        1800
(PID.TID 0000.0001)   Seconds in section "COST_FINAL         [ADJOINT SPIN-DOWN]":
(PID.TID 0000.0001)           User time:   0.0000000000000000
(PID.TID 0000.0001)         System time:   0.0000000000000000
(PID.TID 0000.0001)     Wall clock time:  5.64813613891601563E-004
(PID.TID 0000.0001)          No. starts:          18
(PID.TID 0000.0001)           No. stops:          18
(PID.TID 0000.0001) // ======================================================
(PID.TID 0000.0001) // Tile <-> Tile communication statistics
(PID.TID 0000.0001) // ======================================================
(PID.TID 0000.0001) // o Tile number: 000001
(PID.TID 0000.0001) //         No. X exchanges =              0
(PID.TID 0000.0001) //            Max. X spins =              0
(PID.TID 0000.0001) //            Min. X spins =     1000000000
(PID.TID 0000.0001) //          Total. X spins =              0
(PID.TID 0000.0001) //            Avg. X spins =       0.00E+00
(PID.TID 0000.0001) //         No. Y exchanges =              0
(PID.TID 0000.0001) //            Max. Y spins =              0
(PID.TID 0000.0001) //            Min. Y spins =     1000000000
(PID.TID 0000.0001) //          Total. Y spins =              0
(PID.TID 0000.0001) //            Avg. Y spins =       0.00E+00
(PID.TID 0000.0001) // o Thread number: 000001
(PID.TID 0000.0001) //            No. barriers =         204422
(PID.TID 0000.0001) //      Max. barrier spins =              1
(PID.TID 0000.0001) //      Min. barrier spins =              1
(PID.TID 0000.0001) //     Total barrier spins =         204422
(PID.TID 0000.0001) //      Avg. barrier spins =       1.00E+00
PROGRAM MAIN: Execution ended Normally
