(PID.TID 0000.0001) 
(PID.TID 0000.0001) // ======================================================
(PID.TID 0000.0001) //                      MITgcm UV
(PID.TID 0000.0001) //                      =========
(PID.TID 0000.0001) // ======================================================
(PID.TID 0000.0001) // execution environment starting up...
(PID.TID 0000.0001) 
(PID.TID 0000.0001) // MITgcmUV version:  checkpoint63e
(PID.TID 0000.0001) // Build user:        jmc
(PID.TID 0000.0001) // Build host:        baudelaire
(PID.TID 0000.0001) // Build date:        Mon Nov  7 15:31:34 EST 2011
(PID.TID 0000.0001) 
(PID.TID 0000.0001) // =======================================================
(PID.TID 0000.0001) // Execution Environment parameter file "eedata"
(PID.TID 0000.0001) // =======================================================
(PID.TID 0000.0001) ># Example "eedata" file
(PID.TID 0000.0001) ># Lines beginning "#" are comments
(PID.TID 0000.0001) ># nTx - No. threads per process in X
(PID.TID 0000.0001) ># nTy - No. threads per process in Y
(PID.TID 0000.0001) > &EEPARMS
(PID.TID 0000.0001) > /
(PID.TID 0000.0001) ># Note: Some systems use & as the
(PID.TID 0000.0001) ># namelist terminator. Other systems
(PID.TID 0000.0001) ># use a / character (as shown here).
(PID.TID 0000.0001) 
(PID.TID 0000.0001) // =======================================================
(PID.TID 0000.0001) // Computational Grid Specification ( see files "SIZE.h" )
(PID.TID 0000.0001) //                                  ( and "eedata"       )
(PID.TID 0000.0001) // =======================================================
(PID.TID 0000.0001)      nPx =    1 ; /* No. processes in X */
(PID.TID 0000.0001)      nPy =    1 ; /* No. processes in Y */
(PID.TID 0000.0001)      nSx =    1 ; /* No. tiles in X per process */
(PID.TID 0000.0001)      nSy =    1 ; /* No. tiles in Y per process */
(PID.TID 0000.0001)      sNx =    5 ; /* Tile size in X */
(PID.TID 0000.0001)      sNy =    5 ; /* Tile size in Y */
(PID.TID 0000.0001)      OLx =    2 ; /* Tile overlap distance in X */
(PID.TID 0000.0001)      OLy =    2 ; /* Tile overlap distance in Y */
(PID.TID 0000.0001)      nTx =    1 ; /* No. threads in X per process */
(PID.TID 0000.0001)      nTy =    1 ; /* No. threads in Y per process */
(PID.TID 0000.0001)       Nr =    4 ; /* No. levels in the vertical   */
(PID.TID 0000.0001)       Nx =    5 ; /* Total domain size in X ( = nPx*nSx*sNx ) */
(PID.TID 0000.0001)       Ny =    5 ; /* Total domain size in Y ( = nPy*nSy*sNy ) */
(PID.TID 0000.0001)   nTiles =    1 ; /* Total no. tiles per process ( = nSx*nSy ) */
(PID.TID 0000.0001)   nProcs =    1 ; /* Total no. processes ( = nPx*nPy ) */
(PID.TID 0000.0001) nThreads =    1 ; /* Total no. threads per process ( = nTx*nTy ) */
(PID.TID 0000.0001) usingMPI =    F ; /* Flag used to control whether MPI is in use */
(PID.TID 0000.0001)                   /*  note: To execute a program with MPI calls */
(PID.TID 0000.0001)                   /*  it must be launched appropriately e.g     */
(PID.TID 0000.0001)                   /*  "mpirun -np 64 ......"                    */
(PID.TID 0000.0001) useCoupler=    F ;/* Flag used to control communications with   */
(PID.TID 0000.0001)                   /*  other model components, through a coupler */
(PID.TID 0000.0001) debugMode =    F ; /* print debug msg. (sequence of S/R calls)  */
(PID.TID 0000.0001) printMapIncludesZeros=    F ; /* print zeros in Std.Output maps */
(PID.TID 0000.0001) maxLengthPrt1D=   65 /* maxLength of 1D array printed to StdOut */
(PID.TID 0000.0001) 
(PID.TID 0000.0001) // ======================================================
(PID.TID 0000.0001) // Mapping of tiles to threads
(PID.TID 0000.0001) // ======================================================
(PID.TID 0000.0001) // -o- Thread   1, tiles (   1:   1,   1:   1)
(PID.TID 0000.0001) 
(PID.TID 0000.0001) // ======================================================
(PID.TID 0000.0001) // Tile <-> Tile connectvity table
(PID.TID 0000.0001) // ======================================================
(PID.TID 0000.0001) // Tile number: 000001 (process no. = 000001)
(PID.TID 0000.0001) //        WEST: Tile = 000001, Process = 000001, Comm = put
(PID.TID 0000.0001) //                bi = 000001, bj = 000001
(PID.TID 0000.0001) //        EAST: Tile = 000001, Process = 000001, Comm = put
(PID.TID 0000.0001) //                bi = 000001, bj = 000001
(PID.TID 0000.0001) //       SOUTH: Tile = 000001, Process = 000001, Comm = put
(PID.TID 0000.0001) //                bi = 000001, bj = 000001
(PID.TID 0000.0001) //       NORTH: Tile = 000001, Process = 000001, Comm = put
(PID.TID 0000.0001) //                bi = 000001, bj = 000001
(PID.TID 0000.0001) 
(PID.TID 0000.0001)  INI_PARMS: opening model parameter file "data"
(PID.TID 0000.0001)  OPEN_COPY_DATA_FILE: opening file data
(PID.TID 0000.0001) // =======================================================
(PID.TID 0000.0001) // Parameter file "data"
(PID.TID 0000.0001) // =======================================================
(PID.TID 0000.0001) ># Model parameters
(PID.TID 0000.0001) ># Continuous equation parameters
(PID.TID 0000.0001) > &PARM01
(PID.TID 0000.0001) > tRef=4.,4.,4.,4.,
(PID.TID 0000.0001) > sRef=35.,35.,35.,35.,
(PID.TID 0000.0001) > viscAz=1.E-1,
(PID.TID 0000.0001) > viscAh=1.E5,
(PID.TID 0000.0001) ># viscA4=1.E16,
(PID.TID 0000.0001) ># useJamartWetPoints=.TRUE.,
(PID.TID 0000.0001) > no_slip_sides=.FALSE.,
(PID.TID 0000.0001) > no_slip_bottom=.TRUE.,
(PID.TID 0000.0001) > diffKhT=4.E2,
(PID.TID 0000.0001) > diffKzT=1.E-4,
(PID.TID 0000.0001) > diffKhS=0.0,
(PID.TID 0000.0001) > diffKzS=3.E-5,
(PID.TID 0000.0001) > f0=-1.1914E-04,
(PID.TID 0000.0001) > beta=1.3094E-11,
(PID.TID 0000.0001) > tAlpha=2.E-4,
(PID.TID 0000.0001) ># sBeta =7.4E-4,
(PID.TID 0000.0001) > sBeta = 0.,
(PID.TID 0000.0001) > gravity=9.81,
(PID.TID 0000.0001) > gBaro=9.81,
(PID.TID 0000.0001) > rigidLid=.FALSE.,
(PID.TID 0000.0001) > implicitFreeSurface=.TRUE.,
(PID.TID 0000.0001) > eosType='LINEAR',
(PID.TID 0000.0001) > writeStatePrec=64,
(PID.TID 0000.0001) > writeBinaryPrec=64,
(PID.TID 0000.0001) > readBinaryPrec=64,
(PID.TID 0000.0001) > hFacMin=.05,
(PID.TID 0000.0001) > smoothAbsFuncRange = -1.e-2,
(PID.TID 0000.0001) >#momAdvection = .false.,
(PID.TID 0000.0001) >#momViscosity = .false.,
(PID.TID 0000.0001) >#momPressureForcing = .false.,
(PID.TID 0000.0001) > /
(PID.TID 0000.0001) >
(PID.TID 0000.0001) >
(PID.TID 0000.0001) ># Elliptic solver parameters
(PID.TID 0000.0001) > &PARM02
(PID.TID 0000.0001) > cg2dMaxIters=100,
(PID.TID 0000.0001) > cg2dTargetResidual=1.E-13,
(PID.TID 0000.0001) > /
(PID.TID 0000.0001) ># Time stepping parameters
(PID.TID 0000.0001) > &PARM03
(PID.TID 0000.0001) > nIter0=0,
(PID.TID 0000.0001) > nTimeSteps=100,
(PID.TID 0000.0001) >#startTime = 0.,
(PID.TID 0000.0001) >#endTime = 7776000,
(PID.TID 0000.0001) > deltaTmom=3600.0,
(PID.TID 0000.0001) > deltaTtracer=3600.0,
(PID.TID 0000.0001) > abEps=0.1,
(PID.TID 0000.0001) > pChkptFreq= 7776000.0,
(PID.TID 0000.0001) > chkptFreq=  0.0,
(PID.TID 0000.0001) >#dumpFreq=   1.0,
(PID.TID 0000.0001) > monitorFreq = 43200.,
(PID.TID 0000.0001) > monitorSelect=1,
(PID.TID 0000.0001) > /
(PID.TID 0000.0001) ># Gridding parameters
(PID.TID 0000.0001) > &PARM04
(PID.TID 0000.0001) > usingCartesianGrid=.TRUE.,
(PID.TID 0000.0001) > usingSphericalPolarGrid=.FALSE.,
(PID.TID 0000.0001) > delX=5*200.E3,
(PID.TID 0000.0001) > delY=5*200.E3,
(PID.TID 0000.0001) ># 1 layer
(PID.TID 0000.0001) >#delZ=5001.,500.,500.,500.,
(PID.TID 0000.0001) ># 2 layers
(PID.TID 0000.0001) >#delZ=1000.,5000.,500.,5000.,
(PID.TID 0000.0001) ># 4 layers
(PID.TID 0000.0001) > delZ=100.,400.,500.,5000.,
(PID.TID 0000.0001) >#delZ=1000.,1500.,1500.,1500.,
(PID.TID 0000.0001) > /
(PID.TID 0000.0001) > &PARM05
(PID.TID 0000.0001) >#bathyFile='walls.bigRidge',
(PID.TID 0000.0001) > bathyFile='noWalls.bigRidge',
(PID.TID 0000.0001) >#bathyFile='box.bigRidge',
(PID.TID 0000.0001) >#bathyFile='meridchannel.bigRidge',
(PID.TID 0000.0001) > hydrogThetaFile=,
(PID.TID 0000.0001) > hydrogSaltFile=,
(PID.TID 0000.0001) > zonalWindFile='windx.sin_y',
(PID.TID 0000.0001) > meridWindFile=,
(PID.TID 0000.0001) > surfQFile=,
(PID.TID 0000.0001) > EmPmRFile=,
(PID.TID 0000.0001) > /
(PID.TID 0000.0001) 
(PID.TID 0000.0001)  INI_PARMS ; starts to read PARM01
(PID.TID 0000.0001)  INI_PARMS ; read PARM01 : OK
(PID.TID 0000.0001)  INI_PARMS ; starts to read PARM02
(PID.TID 0000.0001)  INI_PARMS ; read PARM02 : OK
(PID.TID 0000.0001)  INI_PARMS ; starts to read PARM03
(PID.TID 0000.0001)  INI_PARMS ; read PARM03 : OK
(PID.TID 0000.0001)  INI_PARMS ; starts to read PARM04
(PID.TID 0000.0001)  INI_PARMS ; read PARM04 : OK
(PID.TID 0000.0001)  INI_PARMS ; starts to read PARM05
(PID.TID 0000.0001)  INI_PARMS ; read PARM05 : OK
(PID.TID 0000.0001)  INI_PARMS: finished reading file "data"
(PID.TID 0000.0001)  PACKAGES_BOOT: opening data.pkg
(PID.TID 0000.0001)  OPEN_COPY_DATA_FILE: opening file data.pkg
(PID.TID 0000.0001) // =======================================================
(PID.TID 0000.0001) // Parameter file "data.pkg"
(PID.TID 0000.0001) // =======================================================
(PID.TID 0000.0001) >#
(PID.TID 0000.0001) ># ********
(PID.TID 0000.0001) ># Packages
(PID.TID 0000.0001) ># ********
(PID.TID 0000.0001) > &PACKAGES
(PID.TID 0000.0001) > useGMRedi    = .FALSE.,
(PID.TID 0000.0001) > useKPP       = .FALSE.,
(PID.TID 0000.0001) > useGrdchk    = .TRUE.,
(PID.TID 0000.0001) > useECCO      = .FALSE.,
(PID.TID 0000.0001) > /
(PID.TID 0000.0001) 
(PID.TID 0000.0001)  PACKAGES_BOOT: finished reading data.pkg
(PID.TID 0000.0001) OPTIM_READPARMS: opening data.optim
(PID.TID 0000.0001)  OPEN_COPY_DATA_FILE: opening file data.optim
(PID.TID 0000.0001) // =======================================================
(PID.TID 0000.0001) // Parameter file "data.optim"
(PID.TID 0000.0001) // =======================================================
(PID.TID 0000.0001) >#
(PID.TID 0000.0001) ># ********************************
(PID.TID 0000.0001) ># Off-line optimization parameters
(PID.TID 0000.0001) ># ********************************
(PID.TID 0000.0001) > &OPTIM
(PID.TID 0000.0001) > optimcycle=0,
(PID.TID 0000.0001) > /
(PID.TID 0000.0001) 
(PID.TID 0000.0001) OPTIM_READPARMS: finished reading data.optim
(PID.TID 0000.0001) CTRL_READPARMS: opening data.ctrl
(PID.TID 0000.0001)  OPEN_COPY_DATA_FILE: opening file data.ctrl
(PID.TID 0000.0001) // =======================================================
(PID.TID 0000.0001) // Parameter file "data.ctrl"
(PID.TID 0000.0001) // =======================================================
(PID.TID 0000.0001) >#
(PID.TID 0000.0001) >#
(PID.TID 0000.0001) ># *********************
(PID.TID 0000.0001) ># ECCO controlvariables
(PID.TID 0000.0001) ># *********************
(PID.TID 0000.0001) > &CTRL_NML
(PID.TID 0000.0001) ># xx_theta_file      = 'xx_theta',
(PID.TID 0000.0001) ># xx_salt_file       = 'xx_salt',
(PID.TID 0000.0001) ># xx_tr1_file        = 'xx_tr1',
(PID.TID 0000.0001) ># xx_hflux_file      = 'xx_hflux',
(PID.TID 0000.0001) ># xx_sflux_file      = 'xx_sflux',
(PID.TID 0000.0001) ># xx_tauu_file       = 'xx_tauu',
(PID.TID 0000.0001) ># xx_tauv_file       = 'xx_tauv',
(PID.TID 0000.0001) ># xx_sst_file        = 'xx_sst',
(PID.TID 0000.0001) ># xx_sss_file        = 'xx_sss',
(PID.TID 0000.0001) ># xx_diffkr_file     = 'xx_diffkr',
(PID.TID 0000.0001) ># xx_kapgm_file      = 'xx_kapgm',
(PID.TID 0000.0001) >#xx_hfacc_file      = 'xx_hfacc',
(PID.TID 0000.0001) > xx_depth_file      = 'xx_depth',
(PID.TID 0000.0001) > /
(PID.TID 0000.0001) >#
(PID.TID 0000.0001) ># *********************
(PID.TID 0000.0001) ># names for ctrl_pack/unpack
(PID.TID 0000.0001) ># *********************
(PID.TID 0000.0001) > &CTRL_PACKNAMES
(PID.TID 0000.0001) > /
(PID.TID 0000.0001) >
(PID.TID 0000.0001) 
(PID.TID 0000.0001) CTRL_READPARMS: finished reading data.ctrl
(PID.TID 0000.0001) COST_READPARMS: opening data.cost
(PID.TID 0000.0001)  OPEN_COPY_DATA_FILE: opening file data.cost
(PID.TID 0000.0001) // =======================================================
(PID.TID 0000.0001) // Parameter file "data.cost"
(PID.TID 0000.0001) // =======================================================
(PID.TID 0000.0001) >#
(PID.TID 0000.0001) >#
(PID.TID 0000.0001) ># ******************
(PID.TID 0000.0001) ># ECCO cost function
(PID.TID 0000.0001) ># ******************
(PID.TID 0000.0001) > &COST_NML
(PID.TID 0000.0001) > mult_tracer  = 0.,
(PID.TID 0000.0001) > mult_test    = 1.,
(PID.TID 0000.0001) > mult_depth   = 1.,
(PID.TID 0000.0001) > /
(PID.TID 0000.0001) 
(PID.TID 0000.0001) COST_READPARMS: finished reading data.cost
(PID.TID 0000.0001) GRDCHK_READPARMS: opening data.grdchk
(PID.TID 0000.0001)  OPEN_COPY_DATA_FILE: opening file data.grdchk
(PID.TID 0000.0001) // =======================================================
(PID.TID 0000.0001) // Parameter file "data.grdchk"
(PID.TID 0000.0001) // =======================================================
(PID.TID 0000.0001) >
(PID.TID 0000.0001) ># *******************
(PID.TID 0000.0001) ># ECCO gradient check
(PID.TID 0000.0001) ># *******************
(PID.TID 0000.0001) > &GRDCHK_NML
(PID.TID 0000.0001) > grdchk_eps       = 1.d-04,
(PID.TID 0000.0001) > nbeg             = 1,
(PID.TID 0000.0001) > nstep            = 3,
(PID.TID 0000.0001) > nend             = 25,
(PID.TID 0000.0001) > grdchkvarindex   = 20,
(PID.TID 0000.0001) > /
(PID.TID 0000.0001) 
(PID.TID 0000.0001) GRDCHK_READPARMS: finished reading data.grdchk
(PID.TID 0000.0001) 
(PID.TID 0000.0001) // =======================================================
(PID.TID 0000.0001) // Gradient check configuration  >>> START <<<
(PID.TID 0000.0001) // =======================================================
(PID.TID 0000.0001) 
(PID.TID 0000.0001)   eps:                              0.100E-03
(PID.TID 0000.0001)   First location:                           1
(PID.TID 0000.0001)   Last location:                           25
(PID.TID 0000.0001)   Increment:                                3
(PID.TID 0000.0001)   grdchkWhichProc:                          0
(PID.TID 0000.0001)   iLocTile =       1  ,    jLocTile =       1
(PID.TID 0000.0001) 
(PID.TID 0000.0001) // =======================================================
(PID.TID 0000.0001) // Gradient check configuration  >>> END <<<
(PID.TID 0000.0001) // =======================================================
(PID.TID 0000.0001) 
(PID.TID 0000.0001) SET_PARMS: done
(PID.TID 0000.0001) Enter INI_VERTICAL_GRID: setInterFDr=    T ; setCenterDr=    F
(PID.TID 0000.0001) %MON XC_max                       =   9.0000000000000E+05
(PID.TID 0000.0001) %MON XC_min                       =   1.0000000000000E+05
(PID.TID 0000.0001) %MON XC_mean                      =   5.0000000000000E+05
(PID.TID 0000.0001) %MON XC_sd                        =   2.8284271247462E+05
(PID.TID 0000.0001) %MON XG_max                       =   8.0000000000000E+05
(PID.TID 0000.0001) %MON XG_min                       =   0.0000000000000E+00
(PID.TID 0000.0001) %MON XG_mean                      =   4.0000000000000E+05
(PID.TID 0000.0001) %MON XG_sd                        =   2.8284271247462E+05
(PID.TID 0000.0001) %MON DXC_max                      =   2.0000000000000E+05
(PID.TID 0000.0001) %MON DXC_min                      =   2.0000000000000E+05
(PID.TID 0000.0001) %MON DXC_mean                     =   2.0000000000000E+05
(PID.TID 0000.0001) %MON DXC_sd                       =   0.0000000000000E+00
(PID.TID 0000.0001) %MON DXF_max                      =   2.0000000000000E+05
(PID.TID 0000.0001) %MON DXF_min                      =   2.0000000000000E+05
(PID.TID 0000.0001) %MON DXF_mean                     =   2.0000000000000E+05
(PID.TID 0000.0001) %MON DXF_sd                       =   0.0000000000000E+00
(PID.TID 0000.0001) %MON DXG_max                      =   2.0000000000000E+05
(PID.TID 0000.0001) %MON DXG_min                      =   2.0000000000000E+05
(PID.TID 0000.0001) %MON DXG_mean                     =   2.0000000000000E+05
(PID.TID 0000.0001) %MON DXG_sd                       =   0.0000000000000E+00
(PID.TID 0000.0001) %MON DXV_max                      =   2.0000000000000E+05
(PID.TID 0000.0001) %MON DXV_min                      =   2.0000000000000E+05
(PID.TID 0000.0001) %MON DXV_mean                     =   2.0000000000000E+05
(PID.TID 0000.0001) %MON DXV_sd                       =   0.0000000000000E+00
(PID.TID 0000.0001) %MON YC_max                       =   9.0000000000000E+05
(PID.TID 0000.0001) %MON YC_min                       =   1.0000000000000E+05
(PID.TID 0000.0001) %MON YC_mean                      =   5.0000000000000E+05
(PID.TID 0000.0001) %MON YC_sd                        =   2.8284271247462E+05
(PID.TID 0000.0001) %MON YG_max                       =   8.0000000000000E+05
(PID.TID 0000.0001) %MON YG_min                       =   0.0000000000000E+00
(PID.TID 0000.0001) %MON YG_mean                      =   4.0000000000000E+05
(PID.TID 0000.0001) %MON YG_sd                        =   2.8284271247462E+05
(PID.TID 0000.0001) %MON DYC_max                      =   2.0000000000000E+05
(PID.TID 0000.0001) %MON DYC_min                      =   2.0000000000000E+05
(PID.TID 0000.0001) %MON DYC_mean                     =   2.0000000000000E+05
(PID.TID 0000.0001) %MON DYC_sd                       =   0.0000000000000E+00
(PID.TID 0000.0001) %MON DYF_max                      =   2.0000000000000E+05
(PID.TID 0000.0001) %MON DYF_min                      =   2.0000000000000E+05
(PID.TID 0000.0001) %MON DYF_mean                     =   2.0000000000000E+05
(PID.TID 0000.0001) %MON DYF_sd                       =   0.0000000000000E+00
(PID.TID 0000.0001) %MON DYG_max                      =   2.0000000000000E+05
(PID.TID 0000.0001) %MON DYG_min                      =   2.0000000000000E+05
(PID.TID 0000.0001) %MON DYG_mean                     =   2.0000000000000E+05
(PID.TID 0000.0001) %MON DYG_sd                       =   0.0000000000000E+00
(PID.TID 0000.0001) %MON DYU_max                      =   2.0000000000000E+05
(PID.TID 0000.0001) %MON DYU_min                      =   2.0000000000000E+05
(PID.TID 0000.0001) %MON DYU_mean                     =   2.0000000000000E+05
(PID.TID 0000.0001) %MON DYU_sd                       =   0.0000000000000E+00
(PID.TID 0000.0001) %MON RA_max                       =   4.0000000000000E+10
(PID.TID 0000.0001) %MON RA_min                       =   4.0000000000000E+10
(PID.TID 0000.0001) %MON RA_mean                      =   4.0000000000000E+10
(PID.TID 0000.0001) %MON RA_sd                        =   0.0000000000000E+00
(PID.TID 0000.0001) %MON RAW_max                      =   4.0000000000000E+10
(PID.TID 0000.0001) %MON RAW_min                      =   4.0000000000000E+10
(PID.TID 0000.0001) %MON RAW_mean                     =   4.0000000000000E+10
(PID.TID 0000.0001) %MON RAW_sd                       =   0.0000000000000E+00
(PID.TID 0000.0001) %MON RAS_max                      =   4.0000000000000E+10
(PID.TID 0000.0001) %MON RAS_min                      =   4.0000000000000E+10
(PID.TID 0000.0001) %MON RAS_mean                     =   4.0000000000000E+10
(PID.TID 0000.0001) %MON RAS_sd                       =   0.0000000000000E+00
(PID.TID 0000.0001) %MON RAZ_max                      =   4.0000000000000E+10
(PID.TID 0000.0001) %MON RAZ_min                      =   4.0000000000000E+10
(PID.TID 0000.0001) %MON RAZ_mean                     =   4.0000000000000E+10
(PID.TID 0000.0001) %MON RAZ_sd                       =   0.0000000000000E+00
(PID.TID 0000.0001) %MON AngleCS_max                  =   1.0000000000000E+00
(PID.TID 0000.0001) %MON AngleCS_min                  =   1.0000000000000E+00
(PID.TID 0000.0001) %MON AngleCS_mean                 =   1.0000000000000E+00
(PID.TID 0000.0001) %MON AngleCS_sd                   =   0.0000000000000E+00
(PID.TID 0000.0001) %MON AngleSN_max                  =   0.0000000000000E+00
(PID.TID 0000.0001) %MON AngleSN_min                  =   0.0000000000000E+00
(PID.TID 0000.0001) %MON AngleSN_mean                 =   0.0000000000000E+00
(PID.TID 0000.0001) %MON AngleSN_sd                   =   0.0000000000000E+00
(PID.TID 0000.0001) GAD_INIT_FIXED: GAD_OlMinSize=  1  0  1
(PID.TID 0000.0001) 
(PID.TID 0000.0001) // ===================================
(PID.TID 0000.0001) // GAD parameters :
(PID.TID 0000.0001) // ===================================
(PID.TID 0000.0001) tempAdvScheme =   /* Temp. Horiz.Advection scheme selector */
(PID.TID 0000.0001)                       2
(PID.TID 0000.0001)     ;
(PID.TID 0000.0001) tempVertAdvScheme =   /* Temp. Vert. Advection scheme selector */
(PID.TID 0000.0001)                       2
(PID.TID 0000.0001)     ;
(PID.TID 0000.0001) tempMultiDimAdvec =   /* use Muti-Dim Advec method for Temp */
(PID.TID 0000.0001)                   F
(PID.TID 0000.0001)     ;
(PID.TID 0000.0001) tempSOM_Advection = /* use 2nd Order Moment Advection for Temp */
(PID.TID 0000.0001)                   F
(PID.TID 0000.0001)     ;
(PID.TID 0000.0001) AdamsBashforthGt = /* apply Adams-Bashforth extrapolation on Gt */
(PID.TID 0000.0001)                   T
(PID.TID 0000.0001)     ;
(PID.TID 0000.0001) AdamsBashforth_T = /* apply Adams-Bashforth extrapolation on Temp */
(PID.TID 0000.0001)                   F
(PID.TID 0000.0001)     ;
(PID.TID 0000.0001) saltAdvScheme =   /* Salt. Horiz.advection scheme selector */
(PID.TID 0000.0001)                       2
(PID.TID 0000.0001)     ;
(PID.TID 0000.0001) saltVertAdvScheme =   /* Salt. Vert. Advection scheme selector */
(PID.TID 0000.0001)                       2
(PID.TID 0000.0001)     ;
(PID.TID 0000.0001) saltMultiDimAdvec =   /* use Muti-Dim Advec method for Salt */
(PID.TID 0000.0001)                   F
(PID.TID 0000.0001)     ;
(PID.TID 0000.0001) saltSOM_Advection = /* use 2nd Order Moment Advection for Salt */
(PID.TID 0000.0001)                   F
(PID.TID 0000.0001)     ;
(PID.TID 0000.0001) AdamsBashforthGs = /* apply Adams-Bashforth extrapolation on Gs */
(PID.TID 0000.0001)                   T
(PID.TID 0000.0001)     ;
(PID.TID 0000.0001) AdamsBashforth_S = /* apply Adams-Bashforth extrapolation on Salt */
(PID.TID 0000.0001)                   F
(PID.TID 0000.0001)     ;
(PID.TID 0000.0001) // ===================================
(PID.TID 0000.0001) ctrl-wet 1:    nvarlength =           25
(PID.TID 0000.0001) ctrl-wet 2: surface wet C =           25
(PID.TID 0000.0001) ctrl-wet 3: surface wet W =           25
(PID.TID 0000.0001) ctrl-wet 4: surface wet S =           25
(PID.TID 0000.0001) ctrl-wet 4a:surface wet V =            0
(PID.TID 0000.0001) ctrl-wet 5: 3D wet points =          100
(PID.TID 0000.0001) ctrl-wet 6: no recs for i =     1           0
(PID.TID 0000.0001) ctrl-wet 6: no recs for i =     2           0
(PID.TID 0000.0001) ctrl-wet 6: no recs for i =     3           0
(PID.TID 0000.0001) ctrl-wet 6: no recs for i =     4           0
(PID.TID 0000.0001) ctrl-wet 6: no recs for i =     5           0
(PID.TID 0000.0001) ctrl-wet 6: no recs for i =     6           0
(PID.TID 0000.0001) ctrl-wet 6: no recs for i =     7           0
(PID.TID 0000.0001) ctrl-wet 6: no recs for i =     8           0
(PID.TID 0000.0001) ctrl-wet 6: no recs for i =     9           0
(PID.TID 0000.0001) ctrl-wet 6: no recs for i =    10           0
(PID.TID 0000.0001) ctrl-wet 6: no recs for i =    11           0
(PID.TID 0000.0001) ctrl-wet 6: no recs for i =    12           0
(PID.TID 0000.0001) ctrl-wet 6: no recs for i =    13           0
(PID.TID 0000.0001) ctrl-wet 6: no recs for i =    14           0
(PID.TID 0000.0001) ctrl-wet 6: no recs for i =    15           0
(PID.TID 0000.0001) ctrl-wet 6: no recs for i =    16           0
(PID.TID 0000.0001) ctrl-wet 6: no recs for i =    17           0
(PID.TID 0000.0001) ctrl-wet 6: no recs for i =    18           0
(PID.TID 0000.0001) ctrl-wet 6: no recs for i =    19           0
(PID.TID 0000.0001) ctrl-wet 6: no recs for i =    20           1
(PID.TID 0000.0001) ctrl-wet 6: no recs for i =    21           0
(PID.TID 0000.0001) ctrl-wet 6: no recs for i =    22           0
(PID.TID 0000.0001) ctrl-wet 6: no recs for i =    23           0
(PID.TID 0000.0001) ctrl-wet 6: no recs for i =    24           0
(PID.TID 0000.0001) ctrl-wet 6: no recs for i =    25           0
(PID.TID 0000.0001) ctrl-wet 6: no recs for i =    26           0
(PID.TID 0000.0001) ctrl-wet 6: no recs for i =    27           0
(PID.TID 0000.0001) ctrl-wet 6: no recs for i =    28           0
(PID.TID 0000.0001) ctrl-wet 6: no recs for i =    29           0
(PID.TID 0000.0001) ctrl-wet 6: no recs for i =    30           0
(PID.TID 0000.0001) ctrl-wet 6: no recs for i =    31           0
(PID.TID 0000.0001) ctrl-wet 6: no recs for i =    32           0
(PID.TID 0000.0001) ctrl-wet 6: no recs for i =    33           0
(PID.TID 0000.0001) ctrl-wet 6: no recs for i =    34           0
(PID.TID 0000.0001) ctrl-wet 6: no recs for i =    35           0
(PID.TID 0000.0001) ctrl-wet 6: no recs for i =    36           0
(PID.TID 0000.0001) ctrl-wet 6: no recs for i =    37           0
(PID.TID 0000.0001) ctrl-wet 6: no recs for i =    38           0
(PID.TID 0000.0001) ctrl-wet 6: no recs for i =    39           0
(PID.TID 0000.0001) ctrl-wet 6: no recs for i =    40           0
(PID.TID 0000.0001) ctrl-wet 6: no recs for i =    41           0
(PID.TID 0000.0001) ctrl-wet 6: no recs for i =    42           0
(PID.TID 0000.0001) ctrl-wet 6: no recs for i =    43           0
(PID.TID 0000.0001) ctrl-wet 6: no recs for i =    44           0
(PID.TID 0000.0001) ctrl-wet 6: no recs for i =    45           0
(PID.TID 0000.0001) ctrl-wet 6: no recs for i =    46           0
(PID.TID 0000.0001) ctrl-wet 6: no recs for i =    47           0
(PID.TID 0000.0001) ctrl-wet 6: no recs for i =    48           0
(PID.TID 0000.0001) ctrl-wet 6: no recs for i =    49           0
(PID.TID 0000.0001) ctrl-wet 6: no recs for i =    50           0
(PID.TID 0000.0001) ctrl-wet 6: no recs for i =    51           0
(PID.TID 0000.0001) ctrl-wet 6: no recs for i =    52           0
(PID.TID 0000.0001) ctrl-wet 6: no recs for i =    53           0
(PID.TID 0000.0001) ctrl-wet 6: no recs for i =    54           0
(PID.TID 0000.0001) ctrl-wet 6: no recs for i =    55           0
(PID.TID 0000.0001) ctrl-wet 6: no recs for i =    56           0
(PID.TID 0000.0001) ctrl-wet 6: no recs for i =    57           0
(PID.TID 0000.0001) ctrl-wet 6: no recs for i =    58           0
(PID.TID 0000.0001) ctrl-wet 6: no recs for i =    59           0
(PID.TID 0000.0001) ctrl-wet 6: no recs for i =    60           0
(PID.TID 0000.0001) ctrl-wet 7: flux           200
(PID.TID 0000.0001) ctrl-wet 8: atmos          200
(PID.TID 0000.0001) ctrl-wet -------------------------------------------------
(PID.TID 0000.0001) ctrl-wet 13: global nvarlength for Nr =    4          25
(PID.TID 0000.0001) ctrl-wet -------------------------------------------------
(PID.TID 0000.0001) ctrl-wet 14: global nWet C/S/W/V k=    1          25          25          25           0
(PID.TID 0000.0001) ctrl-wet 14: global nWet C/S/W/V k=    2          25          25          25           0
(PID.TID 0000.0001) ctrl-wet 14: global nWet C/S/W/V k=    3          25          25          25           0
(PID.TID 0000.0001) ctrl-wet 14: global nWet C/S/W/V k=    4          25          25          25           0
(PID.TID 0000.0001) ctrl-wet -------------------------------------------------
(PID.TID 0000.0001) ctrl-wet -------------------------------------------------
(PID.TID 0000.0001) ctrl-wet -------------------------------------------------
(PID.TID 0000.0001) ctrl_init: no. of control variables:            1
(PID.TID 0000.0001) ctrl_init: control vector length:              25
(PID.TID 0000.0001) %MON fCori_max                    =  -1.0735540000000E-04
(PID.TID 0000.0001) %MON fCori_min                    =  -1.1783060000000E-04
(PID.TID 0000.0001) %MON fCori_mean                   =  -1.1259300000000E-04
(PID.TID 0000.0001) %MON fCori_sd                     =   3.7035424771427E-06
(PID.TID 0000.0001) %MON fCoriG_max                   =  -1.0866480000000E-04
(PID.TID 0000.0001) %MON fCoriG_min                   =  -1.1914000000000E-04
(PID.TID 0000.0001) %MON fCoriG_mean                  =  -1.1390240000000E-04
(PID.TID 0000.0001) %MON fCoriG_sd                    =   3.7035424771427E-06
(PID.TID 0000.0001) %MON fCoriCos_max                 =   0.0000000000000E+00
(PID.TID 0000.0001) %MON fCoriCos_min                 =   0.0000000000000E+00
(PID.TID 0000.0001) %MON fCoriCos_mean                =   0.0000000000000E+00
(PID.TID 0000.0001) %MON fCoriCos_sd                  =   0.0000000000000E+00
(PID.TID 0000.0001) INI_CG2D: CG2D normalisation factor =  1.9999999999999996E-04
(PID.TID 0000.0001) 
(PID.TID 0000.0001) // =======================================================
(PID.TID 0000.0001) // Model configuration
(PID.TID 0000.0001) // =======================================================
(PID.TID 0000.0001) //
(PID.TID 0000.0001) // "Physical" paramters ( PARM01 in namelist )
(PID.TID 0000.0001) //
(PID.TID 0000.0001) buoyancyRelation = /* Type of relation to get Buoyancy */
(PID.TID 0000.0001)               'OCEANIC'
(PID.TID 0000.0001)     ;
(PID.TID 0000.0001) fluidIsAir   =  /* fluid major constituent is Air */
(PID.TID 0000.0001)                   F
(PID.TID 0000.0001)     ;
(PID.TID 0000.0001) fluidIsWater =  /* fluid major constituent is Water */
(PID.TID 0000.0001)                   T
(PID.TID 0000.0001)     ;
(PID.TID 0000.0001) usingPCoords =  /* use p (or p*) vertical coordinate */
(PID.TID 0000.0001)                   F
(PID.TID 0000.0001)     ;
(PID.TID 0000.0001) usingZCoords =  /* use z (or z*) vertical coordinate */
(PID.TID 0000.0001)                   T
(PID.TID 0000.0001)     ;
(PID.TID 0000.0001) tRef =   /* Reference temperature profile ( oC or K ) */
(PID.TID 0000.0001)     4 @  4.000000000000000E+00              /* K =  1:  4 */
(PID.TID 0000.0001)     ;
(PID.TID 0000.0001) sRef =   /* Reference salinity profile ( psu ) */
(PID.TID 0000.0001)     4 @  3.500000000000000E+01              /* K =  1:  4 */
(PID.TID 0000.0001)     ;
(PID.TID 0000.0001) viscAh  =   /* Lateral eddy viscosity ( m^2/s ) */
(PID.TID 0000.0001)                 1.000000000000000E+05
(PID.TID 0000.0001)     ;
(PID.TID 0000.0001) viscAhMax = /* Maximum lateral eddy viscosity ( m^2/s ) */
(PID.TID 0000.0001)                 1.000000000000000E+21
(PID.TID 0000.0001)     ;
(PID.TID 0000.0001) viscAhGrid = /* Grid dependent lateral eddy viscosity ( non-dim. ) */
(PID.TID 0000.0001)                 0.000000000000000E+00
(PID.TID 0000.0001)     ;
(PID.TID 0000.0001) useFullLeith = /* Use Full Form of Leith Viscosity on/off flag*/
(PID.TID 0000.0001)                   F
(PID.TID 0000.0001)     ;
(PID.TID 0000.0001) useStrainTensionVisc= /* Use StrainTension Form of Viscous Operator flag*/
(PID.TID 0000.0001)                   F
(PID.TID 0000.0001)     ;
(PID.TID 0000.0001) useAreaViscLength = /* Use area for visc length instead of geom. mean*/
(PID.TID 0000.0001)                   F
(PID.TID 0000.0001)     ;
(PID.TID 0000.0001) viscC2leith = /* Leith harmonic visc. factor (on grad(vort),non-dim.) */
(PID.TID 0000.0001)                 0.000000000000000E+00
(PID.TID 0000.0001)     ;
(PID.TID 0000.0001) viscC2leithD = /* Leith harmonic viscosity factor (on grad(div),non-dim.)*/
(PID.TID 0000.0001)                 0.000000000000000E+00
(PID.TID 0000.0001)     ;
(PID.TID 0000.0001) viscC2smag = /* Smagorinsky harmonic viscosity factor (non-dim.) */
(PID.TID 0000.0001)                 0.000000000000000E+00
(PID.TID 0000.0001)     ;
(PID.TID 0000.0001) viscA4  =   /* Lateral biharmonic viscosity ( m^4/s ) */
(PID.TID 0000.0001)                 0.000000000000000E+00
(PID.TID 0000.0001)     ;
(PID.TID 0000.0001) viscA4Max = /* Maximum biharmonic viscosity ( m^2/s ) */
(PID.TID 0000.0001)                 1.000000000000000E+21
(PID.TID 0000.0001)     ;
(PID.TID 0000.0001) viscA4Grid = /* Grid dependent biharmonic viscosity ( non-dim. ) */
(PID.TID 0000.0001)                 0.000000000000000E+00
(PID.TID 0000.0001)     ;
(PID.TID 0000.0001) viscC4leith = /* Leith biharm viscosity factor (on grad(vort), non-dim.)*/
(PID.TID 0000.0001)                 0.000000000000000E+00
(PID.TID 0000.0001)     ;
(PID.TID 0000.0001) viscC4leithD = /* Leith biharm viscosity factor (on grad(div), non-dim.) */
(PID.TID 0000.0001)                 0.000000000000000E+00
(PID.TID 0000.0001)     ;
(PID.TID 0000.0001) viscC4Smag = /* Smagorinsky biharm viscosity factor (non-dim) */
(PID.TID 0000.0001)                 0.000000000000000E+00
(PID.TID 0000.0001)     ;
(PID.TID 0000.0001) no_slip_sides =  /* Viscous BCs: No-slip sides */
(PID.TID 0000.0001)                   F
(PID.TID 0000.0001)     ;
(PID.TID 0000.0001) sideDragFactor = /* side-drag scaling factor (non-dim) */
(PID.TID 0000.0001)                 2.000000000000000E+00
(PID.TID 0000.0001)     ;
(PID.TID 0000.0001) viscArNr = /* vertical profile of vertical viscosity ( m^2/s )*/
(PID.TID 0000.0001)     4 @  1.000000000000000E-01              /* K =  1:  4 */
(PID.TID 0000.0001)     ;
(PID.TID 0000.0001) no_slip_bottom =  /* Viscous BCs: No-slip bottom */
(PID.TID 0000.0001)                   T
(PID.TID 0000.0001)     ;
(PID.TID 0000.0001) bottomDragLinear = /* linear bottom-drag coefficient ( m/s ) */
(PID.TID 0000.0001)                 0.000000000000000E+00
(PID.TID 0000.0001)     ;
(PID.TID 0000.0001) bottomDragQuadratic = /* quadratic bottom-drag coefficient (-) */
(PID.TID 0000.0001)                 0.000000000000000E+00
(PID.TID 0000.0001)     ;
(PID.TID 0000.0001) diffKhT =   /* Laplacian diffusion of heat laterally ( m^2/s ) */
(PID.TID 0000.0001)                 4.000000000000000E+02
(PID.TID 0000.0001)     ;
(PID.TID 0000.0001) diffK4T =   /* Biharmonic diffusion of heat laterally ( m^4/s ) */
(PID.TID 0000.0001)                 0.000000000000000E+00
(PID.TID 0000.0001)     ;
(PID.TID 0000.0001) diffKhS =   /* Laplacian diffusion of salt laterally ( m^2/s ) */
(PID.TID 0000.0001)                 0.000000000000000E+00
(PID.TID 0000.0001)     ;
(PID.TID 0000.0001) diffK4S =   /* Biharmonic diffusion of salt laterally ( m^4/s ) */
(PID.TID 0000.0001)                 0.000000000000000E+00
(PID.TID 0000.0001)     ;
(PID.TID 0000.0001) diffKrNrT = /* vertical profile of vertical diffusion of Temp ( m^2/s )*/
(PID.TID 0000.0001)     4 @  1.000000000000000E-04              /* K =  1:  4 */
(PID.TID 0000.0001)     ;
(PID.TID 0000.0001) diffKrNrS = /* vertical profile of vertical diffusion of Salt ( m^2/s )*/
(PID.TID 0000.0001)     4 @  3.000000000000000E-05              /* K =  1:  4 */
(PID.TID 0000.0001)     ;
(PID.TID 0000.0001) diffKrBL79surf = /* Surface diffusion for Bryan and Lewis 79 ( m^2/s ) */
(PID.TID 0000.0001)                 0.000000000000000E+00
(PID.TID 0000.0001)     ;
(PID.TID 0000.0001) diffKrBL79deep = /* Deep diffusion for Bryan and Lewis 1979 ( m^2/s ) */
(PID.TID 0000.0001)                 0.000000000000000E+00
(PID.TID 0000.0001)     ;
(PID.TID 0000.0001) diffKrBL79scl = /* Depth scale for Bryan and Lewis 1979 ( m ) */
(PID.TID 0000.0001)                 2.000000000000000E+02
(PID.TID 0000.0001)     ;
(PID.TID 0000.0001) diffKrBL79Ho = /* Turning depth for Bryan and Lewis 1979 ( m ) */
(PID.TID 0000.0001)                -2.000000000000000E+03
(PID.TID 0000.0001)     ;
(PID.TID 0000.0001) ivdc_kappa = /* Implicit Vertical Diffusivity for Convection ( m^2/s) */
(PID.TID 0000.0001)                 0.000000000000000E+00
(PID.TID 0000.0001)     ;
(PID.TID 0000.0001) hMixCriteria=  /* Criteria for mixed-layer diagnostic */
(PID.TID 0000.0001)                -8.000000000000000E-01
(PID.TID 0000.0001)     ;
(PID.TID 0000.0001) dRhoSmall =  /* Parameter for mixed-layer diagnostic */
(PID.TID 0000.0001)                 1.000000000000000E-06
(PID.TID 0000.0001)     ;
(PID.TID 0000.0001) hMixSmooth=  /* Smoothing parameter for mixed-layer diagnostic */
(PID.TID 0000.0001)                 0.000000000000000E+00
(PID.TID 0000.0001)     ;
(PID.TID 0000.0001) eosType =  /* Type of Equation of State */
(PID.TID 0000.0001)               'LINEAR'
(PID.TID 0000.0001)     ;
(PID.TID 0000.0001) tAlpha =   /* Linear EOS thermal expansion coefficient ( 1/oC ) */
(PID.TID 0000.0001)                 2.000000000000000E-04
(PID.TID 0000.0001)     ;
(PID.TID 0000.0001) sBeta =   /* Linear EOS haline contraction coefficient ( 1/psu ) */
(PID.TID 0000.0001)                 0.000000000000000E+00
(PID.TID 0000.0001)     ;
(PID.TID 0000.0001) rhonil =   /* Reference density ( kg/m^3 ) */
(PID.TID 0000.0001)                 9.998000000000000E+02
(PID.TID 0000.0001)     ;
(PID.TID 0000.0001) rhoConst =   /* Reference density ( kg/m^3 ) */
(PID.TID 0000.0001)                 9.998000000000000E+02
(PID.TID 0000.0001)     ;
(PID.TID 0000.0001) rhoFacC = /* normalized Reference density @ cell-Center (-) */
(PID.TID 0000.0001)     4 @  1.000000000000000E+00              /* K =  1:  4 */
(PID.TID 0000.0001)     ;
(PID.TID 0000.0001) rhoFacF = /* normalized Reference density @ W-Interface (-) */
(PID.TID 0000.0001)     5 @  1.000000000000000E+00              /* K =  1:  5 */
(PID.TID 0000.0001)     ;
(PID.TID 0000.0001) rhoConstFresh =   /* Reference density ( kg/m^3 ) */
(PID.TID 0000.0001)                 9.998000000000000E+02
(PID.TID 0000.0001)     ;
(PID.TID 0000.0001) gravity =   /* Gravitational acceleration ( m/s^2 ) */
(PID.TID 0000.0001)                 9.810000000000000E+00
(PID.TID 0000.0001)     ;
(PID.TID 0000.0001) gBaro =   /* Barotropic gravity ( m/s^2 ) */
(PID.TID 0000.0001)                 9.810000000000000E+00
(PID.TID 0000.0001)     ;
(PID.TID 0000.0001) rotationPeriod =   /* Rotation Period ( s ) */
(PID.TID 0000.0001)                 8.616400000000000E+04
(PID.TID 0000.0001)     ;
(PID.TID 0000.0001) omega =   /* Angular velocity ( rad/s ) */
(PID.TID 0000.0001)                 7.292123516990375E-05
(PID.TID 0000.0001)     ;
(PID.TID 0000.0001) f0 =   /* Reference coriolis parameter ( 1/s ) */
(PID.TID 0000.0001)                -1.191400000000000E-04
(PID.TID 0000.0001)     ;
(PID.TID 0000.0001) beta =   /* Beta ( 1/(m.s) ) */
(PID.TID 0000.0001)                 1.309400000000000E-11
(PID.TID 0000.0001)     ;
(PID.TID 0000.0001) fPrime =   /* Second coriolis parameter ( 1/s ) */
(PID.TID 0000.0001)                 0.000000000000000E+00
(PID.TID 0000.0001)     ;
(PID.TID 0000.0001) rigidLid =   /* Rigid lid on/off flag */
(PID.TID 0000.0001)                   F
(PID.TID 0000.0001)     ;
(PID.TID 0000.0001) implicitFreeSurface =   /* Implicit free surface on/off flag */
(PID.TID 0000.0001)                   T
(PID.TID 0000.0001)     ;
(PID.TID 0000.0001) freeSurfFac =   /* Implicit free surface factor */
(PID.TID 0000.0001)                 1.000000000000000E+00
(PID.TID 0000.0001)     ;
(PID.TID 0000.0001) implicSurfPress =  /* Surface Pressure implicit factor (0-1)*/
(PID.TID 0000.0001)                 1.000000000000000E+00
(PID.TID 0000.0001)     ;
(PID.TID 0000.0001) implicDiv2Dflow =  /* Barot. Flow Div. implicit factor (0-1)*/
(PID.TID 0000.0001)                 1.000000000000000E+00
(PID.TID 0000.0001)     ;
(PID.TID 0000.0001) exactConserv =  /* Exact Volume Conservation on/off flag*/
(PID.TID 0000.0001)                   F
(PID.TID 0000.0001)     ;
(PID.TID 0000.0001) linFSConserveTr = /* Tracer correction for Lin Free Surface on/off flag*/
(PID.TID 0000.0001)                   F
(PID.TID 0000.0001)     ;
(PID.TID 0000.0001) uniformLin_PhiSurf = /* use uniform Bo_surf on/off flag*/
(PID.TID 0000.0001)                   T
(PID.TID 0000.0001)     ;
(PID.TID 0000.0001) hFacMin =   /* minimum partial cell factor (hFac) */
(PID.TID 0000.0001)                 5.000000000000000E-02
(PID.TID 0000.0001)     ;
(PID.TID 0000.0001) hFacMinDr = /* minimum partial cell thickness ( m) */
(PID.TID 0000.0001)                 5.000000000000000E-02
(PID.TID 0000.0001)     ;
(PID.TID 0000.0001) nonlinFreeSurf = /* Non-linear Free Surf. options (-1,0,1,2,3)*/
(PID.TID 0000.0001)                       0
(PID.TID 0000.0001)      -1,0= Off ; 1,2,3= On, 2=+rescale gU,gV, 3=+update cg2d solv.
(PID.TID 0000.0001)     ;
(PID.TID 0000.0001) hFacInf =   /* lower threshold for hFac (nonlinFreeSurf only)*/
(PID.TID 0000.0001)                 2.000000000000000E-01
(PID.TID 0000.0001)     ;
(PID.TID 0000.0001) hFacSup =   /* upper threshold for hFac (nonlinFreeSurf only)*/
(PID.TID 0000.0001)                 2.000000000000000E+00
(PID.TID 0000.0001)     ;
(PID.TID 0000.0001) select_rStar = /* r* Vertical coord. options (=0 r coord.; >0 uses r*)*/
(PID.TID 0000.0001)                       0
(PID.TID 0000.0001)     ;
(PID.TID 0000.0001) selectAddFluid = /* option for mass source/sink of fluid (=0: off) */
(PID.TID 0000.0001)                       0
(PID.TID 0000.0001)     ;
(PID.TID 0000.0001) useRealFreshWaterFlux = /* Real Fresh Water Flux on/off flag*/
(PID.TID 0000.0001)                   F
(PID.TID 0000.0001)     ;
(PID.TID 0000.0001) temp_EvPrRn = /* Temp. of Evap/Prec/R (UNSET=use local T)(oC)*/
(PID.TID 0000.0001)                 1.234567000000000E+05
(PID.TID 0000.0001)     ;
(PID.TID 0000.0001) salt_EvPrRn = /* Salin. of Evap/Prec/R (UNSET=use local S)(psu)*/
(PID.TID 0000.0001)                 0.000000000000000E+00
(PID.TID 0000.0001)     ;
(PID.TID 0000.0001) temp_addMass = /* Temp. of addMass array (UNSET=use local T)(oC)*/
(PID.TID 0000.0001)                 1.234567000000000E+05
(PID.TID 0000.0001)     ;
(PID.TID 0000.0001) salt_addMass = /* Salin. of addMass array (UNSET=use local S)(psu)*/
(PID.TID 0000.0001)                 0.000000000000000E+00
(PID.TID 0000.0001)     ;
(PID.TID 0000.0001) convertFW2Salt = /* convert F.W. Flux to Salt Flux (-1=use local S)(psu)*/
(PID.TID 0000.0001)                 3.500000000000000E+01
(PID.TID 0000.0001)     ;
(PID.TID 0000.0001) use3Dsolver = /* use 3-D pressure solver on/off flag */
(PID.TID 0000.0001)                   F
(PID.TID 0000.0001)     ;
(PID.TID 0000.0001) nonHydrostatic =  /* Non-Hydrostatic on/off flag */
(PID.TID 0000.0001)                   F
(PID.TID 0000.0001)     ;
(PID.TID 0000.0001) nh_Am2 = /* Non-Hydrostatic terms scaling factor */
(PID.TID 0000.0001)                 1.000000000000000E+00
(PID.TID 0000.0001)     ;
(PID.TID 0000.0001) implicitNHPress = /* Non-Hyd Pressure implicit factor (0-1)*/
(PID.TID 0000.0001)                 1.000000000000000E+00
(PID.TID 0000.0001)     ;
(PID.TID 0000.0001) selectNHfreeSurf = /* Non-Hyd (free-)Surface option */
(PID.TID 0000.0001)                       0
(PID.TID 0000.0001)     ;
(PID.TID 0000.0001) quasiHydrostatic = /* Quasi-Hydrostatic on/off flag */
(PID.TID 0000.0001)                   F
(PID.TID 0000.0001)     ;
(PID.TID 0000.0001) momStepping =  /* Momentum equation on/off flag */
(PID.TID 0000.0001)                   T
(PID.TID 0000.0001)     ;
(PID.TID 0000.0001) vectorInvariantMomentum= /* Vector-Invariant Momentum on/off */
(PID.TID 0000.0001)                   F
(PID.TID 0000.0001)     ;
(PID.TID 0000.0001) momAdvection =  /* Momentum advection on/off flag */
(PID.TID 0000.0001)                   T
(PID.TID 0000.0001)     ;
(PID.TID 0000.0001) momViscosity =  /* Momentum viscosity on/off flag */
(PID.TID 0000.0001)                   T
(PID.TID 0000.0001)     ;
(PID.TID 0000.0001) momImplVertAdv= /* Momentum implicit vert. advection on/off*/
(PID.TID 0000.0001)                   F
(PID.TID 0000.0001)     ;
(PID.TID 0000.0001) implicitViscosity = /* Implicit viscosity on/off flag */
(PID.TID 0000.0001)                   F
(PID.TID 0000.0001)     ;
(PID.TID 0000.0001) metricTerms =  /* metric-Terms on/off flag */
(PID.TID 0000.0001)                   F
(PID.TID 0000.0001)     ;
(PID.TID 0000.0001) useNHMTerms = /* Non-Hydrostatic Metric-Terms on/off */
(PID.TID 0000.0001)                   F
(PID.TID 0000.0001)     ;
(PID.TID 0000.0001) selectCoriMap = /* Coriolis Map options (0,1,2,3)*/
(PID.TID 0000.0001)                       1
(PID.TID 0000.0001)     0= f-Plane ; 1= Beta-Plane ; 2= Spherical ; 3= read from file
(PID.TID 0000.0001)     ;
(PID.TID 0000.0001) use3dCoriolis = /* 3-D Coriolis on/off flag */
(PID.TID 0000.0001)                   F
(PID.TID 0000.0001)     ;
(PID.TID 0000.0001) useCoriolis =  /* Coriolis on/off flag */
(PID.TID 0000.0001)                   T
(PID.TID 0000.0001)     ;
(PID.TID 0000.0001) useCDscheme =  /* CD scheme on/off flag */
(PID.TID 0000.0001)                   F
(PID.TID 0000.0001)     ;
(PID.TID 0000.0001) useEnergyConservingCoriolis= /* Flx-Form Coriolis scheme flag */
(PID.TID 0000.0001)                   F
(PID.TID 0000.0001)     ;
(PID.TID 0000.0001) useJamartWetPoints= /* Coriolis WetPoints method flag */
(PID.TID 0000.0001)                   F
(PID.TID 0000.0001)     ;
(PID.TID 0000.0001) useJamartMomAdv= /* V.I Non-linear terms Jamart flag */
(PID.TID 0000.0001)                   F
(PID.TID 0000.0001)     ;
(PID.TID 0000.0001) useAbsVorticity= /* V.I Works with f+zeta in Coriolis */
(PID.TID 0000.0001)                   F
(PID.TID 0000.0001)     ;
(PID.TID 0000.0001) selectVortScheme= /* V.I Scheme selector for Vorticity-Term */
(PID.TID 0000.0001)               123456789
(PID.TID 0000.0001)    = 0 : enstrophy (Shallow-Water Eq.) conserving scheme by Sadourny, JAS 75
(PID.TID 0000.0001)    = 1 : same as 0 with modified hFac
(PID.TID 0000.0001)    = 2 : energy conserving scheme (used by Sadourny in JAS 75 paper)
(PID.TID 0000.0001)    = 3 : energy (general) and enstrophy (2D, nonDiv.) conserving scheme
(PID.TID 0000.0001)          from Sadourny (Burridge & Haseler, ECMWF Rep.4, 1977)
(PID.TID 0000.0001)     ;
(PID.TID 0000.0001) upwindVorticity= /* V.I Upwind bias vorticity flag */
(PID.TID 0000.0001)                   F
(PID.TID 0000.0001)     ;
(PID.TID 0000.0001) highOrderVorticity= /* V.I High order vort. advect. flag */
(PID.TID 0000.0001)                   F
(PID.TID 0000.0001)     ;
(PID.TID 0000.0001) upwindShear= /* V.I Upwind vertical Shear advection flag */
(PID.TID 0000.0001)                   F
(PID.TID 0000.0001)     ;
(PID.TID 0000.0001) selectKEscheme= /* V.I Kinetic Energy scheme selector */
(PID.TID 0000.0001)                       0
(PID.TID 0000.0001)     ;
(PID.TID 0000.0001) momForcing =  /* Momentum forcing on/off flag */
(PID.TID 0000.0001)                   T
(PID.TID 0000.0001)     ;
(PID.TID 0000.0001) momPressureForcing =  /* Momentum pressure term on/off flag */
(PID.TID 0000.0001)                   T
(PID.TID 0000.0001)     ;
(PID.TID 0000.0001) implicitIntGravWave= /* Implicit Internal Gravity Wave flag */
(PID.TID 0000.0001)                   F
(PID.TID 0000.0001)     ;
(PID.TID 0000.0001) staggerTimeStep =   /* Stagger time stepping on/off flag */
(PID.TID 0000.0001)                   F
(PID.TID 0000.0001)     ;
(PID.TID 0000.0001) multiDimAdvection =   /* enable/disable Multi-Dim Advection */
(PID.TID 0000.0001)                   T
(PID.TID 0000.0001)     ;
(PID.TID 0000.0001) useMultiDimAdvec =   /* Multi-Dim Advection is/is-not used */
(PID.TID 0000.0001)                   F
(PID.TID 0000.0001)     ;
(PID.TID 0000.0001) implicitDiffusion = /* Implicit Diffusion on/off flag */
(PID.TID 0000.0001)                   F
(PID.TID 0000.0001)     ;
(PID.TID 0000.0001) tempStepping =  /* Temperature equation on/off flag */
(PID.TID 0000.0001)                   T
(PID.TID 0000.0001)     ;
(PID.TID 0000.0001) tempAdvection=  /* Temperature advection on/off flag */
(PID.TID 0000.0001)                   T
(PID.TID 0000.0001)     ;
(PID.TID 0000.0001) tempImplVertAdv = /* Temp. implicit vert. advection on/off */
(PID.TID 0000.0001)                   F
(PID.TID 0000.0001)     ;
(PID.TID 0000.0001) tempForcing  =  /* Temperature forcing on/off flag */
(PID.TID 0000.0001)                   T
(PID.TID 0000.0001)     ;
(PID.TID 0000.0001) tempIsActiveTr = /* Temp. is a dynamically Active Tracer */
(PID.TID 0000.0001)                   T
(PID.TID 0000.0001)     ;
(PID.TID 0000.0001) saltStepping =  /* Salinity equation on/off flag */
(PID.TID 0000.0001)                   T
(PID.TID 0000.0001)     ;
(PID.TID 0000.0001) saltAdvection=  /* Salinity advection on/off flag */
(PID.TID 0000.0001)                   T
(PID.TID 0000.0001)     ;
(PID.TID 0000.0001) saltImplVertAdv = /* Sali. implicit vert. advection on/off */
(PID.TID 0000.0001)                   F
(PID.TID 0000.0001)     ;
(PID.TID 0000.0001) saltForcing  =  /* Salinity forcing on/off flag */
(PID.TID 0000.0001)                   T
(PID.TID 0000.0001)     ;
(PID.TID 0000.0001) saltIsActiveTr = /* Salt  is a dynamically Active Tracer */
(PID.TID 0000.0001)                   F
(PID.TID 0000.0001)     ;
(PID.TID 0000.0001)  readBinaryPrec = /* Precision used for reading binary files */
(PID.TID 0000.0001)                      64
(PID.TID 0000.0001)     ;
(PID.TID 0000.0001) writeBinaryPrec = /* Precision used for writing binary files */
(PID.TID 0000.0001)                      64
(PID.TID 0000.0001)     ;
(PID.TID 0000.0001)  globalFiles = /* write "global" (=not per tile) files */
(PID.TID 0000.0001)                   F
(PID.TID 0000.0001)     ;
(PID.TID 0000.0001)  useSingleCpuIO = /* only master MPI process does I/O */
(PID.TID 0000.0001)                   F
(PID.TID 0000.0001)     ;
(PID.TID 0000.0001) /* debLev[*]  : level of debug & auxiliary message printing */
(PID.TID 0000.0001) debLevZero =  0 ; /* level of disabled aux. msg printing */
(PID.TID 0000.0001)    debLevA =  1 ; /* level of minimum  aux. msg printing */
(PID.TID 0000.0001)    debLevB =  2 ; /* level of low aux. print (report read-file opening)*/
(PID.TID 0000.0001)    debLevC =  3 ; /* level of moderate debug prt (most pkgs debug msg) */
(PID.TID 0000.0001)    debLevD =  4 ; /* level of enhanced debug prt (add DEBUG_STATS prt) */
(PID.TID 0000.0001)    debLevE =  5 ; /* level of extensive debug printing */
(PID.TID 0000.0001) debugLevel =  /* select debug printing level */
(PID.TID 0000.0001)                       1
(PID.TID 0000.0001)     ;
(PID.TID 0000.0001) //
(PID.TID 0000.0001) // Elliptic solver(s) paramters ( PARM02 in namelist )
(PID.TID 0000.0001) //
(PID.TID 0000.0001) cg2dMaxIters =   /* Upper limit on 2d con. grad iterations  */
(PID.TID 0000.0001)                     100
(PID.TID 0000.0001)     ;
(PID.TID 0000.0001) cg2dChkResFreq =   /* 2d con. grad convergence test frequency */
(PID.TID 0000.0001)                       1
(PID.TID 0000.0001)     ;
(PID.TID 0000.0001) cg2dTargetResidual =   /* 2d con. grad target residual  */
(PID.TID 0000.0001)                 1.000000000000000E-13
(PID.TID 0000.0001)     ;
(PID.TID 0000.0001) cg2dTargetResWunit =   /* CG2d target residual [W units] */
(PID.TID 0000.0001)                -1.000000000000000E+00
(PID.TID 0000.0001)     ;
(PID.TID 0000.0001) cg2dPreCondFreq =   /* Freq. for updating cg2d preconditioner */
(PID.TID 0000.0001)                       1
(PID.TID 0000.0001)     ;
(PID.TID 0000.0001) useSRCGSolver =  /* use single reduction CG solver(s) */
(PID.TID 0000.0001)                   F
(PID.TID 0000.0001)     ;
(PID.TID 0000.0001) printResidualFreq = /* Freq. for printing CG residual */
(PID.TID 0000.0001)                       0
(PID.TID 0000.0001)     ;
(PID.TID 0000.0001) //
(PID.TID 0000.0001) // Time stepping paramters ( PARM03 in namelist )
(PID.TID 0000.0001) //
(PID.TID 0000.0001) deltaTmom =   /* Momentum equation timestep ( s ) */
(PID.TID 0000.0001)                 3.600000000000000E+03
(PID.TID 0000.0001)     ;
(PID.TID 0000.0001) deltaTfreesurf = /* FreeSurface equation timestep ( s ) */
(PID.TID 0000.0001)                 3.600000000000000E+03
(PID.TID 0000.0001)     ;
(PID.TID 0000.0001) dTtracerLev =  /* Tracer equation timestep ( s ) */
(PID.TID 0000.0001)     4 @  3.600000000000000E+03              /* K =  1:  4 */
(PID.TID 0000.0001)     ;
(PID.TID 0000.0001) deltaTClock  =   /* Model clock timestep ( s ) */
(PID.TID 0000.0001)                 3.600000000000000E+03
(PID.TID 0000.0001)     ;
(PID.TID 0000.0001) cAdjFreq =   /* Convective adjustment interval ( s ) */
(PID.TID 0000.0001)                 0.000000000000000E+00
(PID.TID 0000.0001)     ;
(PID.TID 0000.0001) momForcingOutAB = /* =1: take Momentum Forcing out of Adams-Bash. stepping */
(PID.TID 0000.0001)                       0
(PID.TID 0000.0001)     ;
(PID.TID 0000.0001) tracForcingOutAB = /* =1: take T,S,pTr Forcing out of Adams-Bash. stepping */
(PID.TID 0000.0001)                       0
(PID.TID 0000.0001)     ;
(PID.TID 0000.0001) momDissip_In_AB = /* put Dissipation Tendency in Adams-Bash. stepping */
(PID.TID 0000.0001)                   T
(PID.TID 0000.0001)     ;
(PID.TID 0000.0001) doAB_onGtGs = /* apply AB on Tendencies (rather than on T,S)*/
(PID.TID 0000.0001)                   T
(PID.TID 0000.0001)     ;
(PID.TID 0000.0001) abEps =   /* Adams-Bashforth-2 stabilizing weight */
(PID.TID 0000.0001)                 1.000000000000000E-01
(PID.TID 0000.0001)     ;
(PID.TID 0000.0001) pickupStrictlyMatch= /* stop if pickup do not strictly match */
(PID.TID 0000.0001)                   T
(PID.TID 0000.0001)     ;
(PID.TID 0000.0001) nIter0   =   /* Run starting timestep number */
(PID.TID 0000.0001)                       0
(PID.TID 0000.0001)     ;
(PID.TID 0000.0001) nTimeSteps = /* Number of timesteps */
(PID.TID 0000.0001)                     100
(PID.TID 0000.0001)     ;
(PID.TID 0000.0001) nEndIter =   /* Run ending timestep number */
(PID.TID 0000.0001)                     100
(PID.TID 0000.0001)     ;
(PID.TID 0000.0001) baseTime =   /* Model base time ( s ) */
(PID.TID 0000.0001)                 0.000000000000000E+00
(PID.TID 0000.0001)     ;
(PID.TID 0000.0001) startTime =  /* Run start time ( s ) */
(PID.TID 0000.0001)                 0.000000000000000E+00
(PID.TID 0000.0001)     ;
(PID.TID 0000.0001) endTime  =   /* Integration ending time ( s ) */
(PID.TID 0000.0001)                 3.600000000000000E+05
(PID.TID 0000.0001)     ;
(PID.TID 0000.0001) pChkPtFreq = /* Permanent restart/pickup file interval ( s ) */
(PID.TID 0000.0001)                 7.776000000000000E+06
(PID.TID 0000.0001)     ;
(PID.TID 0000.0001) chkPtFreq  = /* Rolling restart/pickup file interval ( s ) */
(PID.TID 0000.0001)                 0.000000000000000E+00
(PID.TID 0000.0001)     ;
(PID.TID 0000.0001) pickup_write_mdsio =   /* Model IO flag. */
(PID.TID 0000.0001)                   T
(PID.TID 0000.0001)     ;
(PID.TID 0000.0001) pickup_read_mdsio =   /* Model IO flag. */
(PID.TID 0000.0001)                   T
(PID.TID 0000.0001)     ;
(PID.TID 0000.0001) pickup_write_mnc =   /* Model IO flag. */
(PID.TID 0000.0001)                   F
(PID.TID 0000.0001)     ;
(PID.TID 0000.0001) pickup_read_mnc =   /* Model IO flag. */
(PID.TID 0000.0001)                   F
(PID.TID 0000.0001)     ;
(PID.TID 0000.0001) pickup_write_immed =   /* Model IO flag. */
(PID.TID 0000.0001)                   F
(PID.TID 0000.0001)     ;
(PID.TID 0000.0001) writePickupAtEnd =   /* Model IO flag. */
(PID.TID 0000.0001)                   T
(PID.TID 0000.0001)     ;
(PID.TID 0000.0001) dumpFreq =   /* Model state write out interval ( s ). */
(PID.TID 0000.0001)                 0.000000000000000E+00
(PID.TID 0000.0001)     ;
(PID.TID 0000.0001) dumpInitAndLast= /* write out Initial & Last iter. model state */
(PID.TID 0000.0001)                   T
(PID.TID 0000.0001)     ;
(PID.TID 0000.0001) snapshot_mdsio =   /* Model IO flag. */
(PID.TID 0000.0001)                   T
(PID.TID 0000.0001)     ;
(PID.TID 0000.0001) snapshot_mnc =   /* Model IO flag. */
(PID.TID 0000.0001)                   F
(PID.TID 0000.0001)     ;
(PID.TID 0000.0001) monitorFreq =   /* Monitor output interval ( s ). */
(PID.TID 0000.0001)                 4.320000000000000E+04
(PID.TID 0000.0001)     ;
(PID.TID 0000.0001) monitorSelect = /* select group of variables to monitor */
(PID.TID 0000.0001)                       1
(PID.TID 0000.0001)     ;
(PID.TID 0000.0001) monitor_stdio =   /* Model IO flag. */
(PID.TID 0000.0001)                   T
(PID.TID 0000.0001)     ;
(PID.TID 0000.0001) monitor_mnc =   /* Model IO flag. */
(PID.TID 0000.0001)                   F
(PID.TID 0000.0001)     ;
(PID.TID 0000.0001) externForcingPeriod =   /* forcing period (s) */
(PID.TID 0000.0001)                 0.000000000000000E+00
(PID.TID 0000.0001)     ;
(PID.TID 0000.0001) externForcingCycle =   /* period of the cyle (s). */
(PID.TID 0000.0001)                 0.000000000000000E+00
(PID.TID 0000.0001)     ;
(PID.TID 0000.0001) tauThetaClimRelax =   /* relaxation time scale (s) */
(PID.TID 0000.0001)                 0.000000000000000E+00
(PID.TID 0000.0001)     ;
(PID.TID 0000.0001) tauSaltClimRelax =   /* relaxation time scale (s) */
(PID.TID 0000.0001)                 0.000000000000000E+00
(PID.TID 0000.0001)     ;
(PID.TID 0000.0001) latBandClimRelax =   /* max. Lat. where relaxation */
(PID.TID 0000.0001)                 3.000000000000000E+06
(PID.TID 0000.0001)     ;
(PID.TID 0000.0001) //
(PID.TID 0000.0001) // Gridding paramters ( PARM04 in namelist )
(PID.TID 0000.0001) //
(PID.TID 0000.0001) usingCartesianGrid = /* Cartesian coordinates flag ( True/False ) */
(PID.TID 0000.0001)                   T
(PID.TID 0000.0001)     ;
(PID.TID 0000.0001) usingCylindricalGrid = /* Cylindrical coordinates flag ( True/False ) */
(PID.TID 0000.0001)                   F
(PID.TID 0000.0001)     ;
(PID.TID 0000.0001) usingSphericalPolarGrid = /* Spherical coordinates flag ( True/False ) */
(PID.TID 0000.0001)                   F
(PID.TID 0000.0001)     ;
(PID.TID 0000.0001) usingCurvilinearGrid = /* Curvilinear coordinates flag ( True/False ) */
(PID.TID 0000.0001)                   F
(PID.TID 0000.0001)     ;
(PID.TID 0000.0001) selectSigmaCoord = /* Hybrid-Sigma Vert. Coordinate option */
(PID.TID 0000.0001)                       0
(PID.TID 0000.0001)     ;
(PID.TID 0000.0001) Ro_SeaLevel = /* r(1) ( units of r ==  m ) */
(PID.TID 0000.0001)                 0.000000000000000E+00
(PID.TID 0000.0001)     ;
(PID.TID 0000.0001) rSigmaBnd = /* r/sigma transition ( units of r ==  m ) */
(PID.TID 0000.0001)                 1.234567000000000E+05
(PID.TID 0000.0001)     ;
(PID.TID 0000.0001) rkSign =   /* index orientation relative to vertical coordinate */
(PID.TID 0000.0001)                -1.000000000000000E+00
(PID.TID 0000.0001)     ;
(PID.TID 0000.0001) gravitySign = /* gravity orientation relative to vertical coordinate */
(PID.TID 0000.0001)                -1.000000000000000E+00
(PID.TID 0000.0001)     ;
(PID.TID 0000.0001) mass2rUnit = /* convert mass per unit area [kg/m2] to r-units [m] */
(PID.TID 0000.0001)                 1.000200040008002E-03
(PID.TID 0000.0001)     ;
(PID.TID 0000.0001) rUnit2mass = /* convert r-units [m] to mass per unit area [kg/m2] */
(PID.TID 0000.0001)                 9.998000000000000E+02
(PID.TID 0000.0001)     ;
(PID.TID 0000.0001) drC =   /* C spacing ( units of r ) */
(PID.TID 0000.0001)                 5.000000000000000E+01,      /* K =  1 */
(PID.TID 0000.0001)                 2.500000000000000E+02,      /* K =  2 */
(PID.TID 0000.0001)                 4.500000000000000E+02,      /* K =  3 */
(PID.TID 0000.0001)                 2.750000000000000E+03       /* K =  4 */
(PID.TID 0000.0001)     ;
(PID.TID 0000.0001) drF =   /* W spacing ( units of r ) */
(PID.TID 0000.0001)                 1.000000000000000E+02,      /* K =  1 */
(PID.TID 0000.0001)                 4.000000000000000E+02,      /* K =  2 */
(PID.TID 0000.0001)                 5.000000000000000E+02,      /* K =  3 */
(PID.TID 0000.0001)                 5.000000000000000E+03       /* K =  4 */
(PID.TID 0000.0001)     ;
(PID.TID 0000.0001) delX = /* U spacing ( m - cartesian, degrees - spherical ) */
(PID.TID 0000.0001)     5 @  2.000000000000000E+05              /* I =  1:  5 */
(PID.TID 0000.0001)     ;
(PID.TID 0000.0001) delY = /* V spacing ( m - cartesian, degrees - spherical ) */
(PID.TID 0000.0001)     5 @  2.000000000000000E+05              /* J =  1:  5 */
(PID.TID 0000.0001)     ;
(PID.TID 0000.0001) xgOrigin = /* X-axis origin of West  edge (cartesian: m, lat-lon: deg.) */
(PID.TID 0000.0001)                 0.000000000000000E+00
(PID.TID 0000.0001)     ;
(PID.TID 0000.0001) ygOrigin = /* Y-axis origin of South edge (cartesian: m, lat-lon: deg.) */
(PID.TID 0000.0001)                 0.000000000000000E+00
(PID.TID 0000.0001)     ;
(PID.TID 0000.0001) rSphere =  /* Radius ( ignored - cartesian, m - spherical ) */
(PID.TID 0000.0001)                 6.370000000000000E+06
(PID.TID 0000.0001)     ;
(PID.TID 0000.0001) deepAtmosphere = /* Deep/Shallow Atmosphere flag (True/False) */
(PID.TID 0000.0001)                   F
(PID.TID 0000.0001)     ;
(PID.TID 0000.0001) xC =  /* xC(:,1,:,1) : P-point X coord ( deg. or m if cartesian) */
(PID.TID 0000.0001)                 1.000000000000000E+05,      /* I =  1 */
(PID.TID 0000.0001)                 3.000000000000000E+05,      /* I =  2 */
(PID.TID 0000.0001)                 5.000000000000000E+05,      /* I =  3 */
(PID.TID 0000.0001)                 7.000000000000000E+05,      /* I =  4 */
(PID.TID 0000.0001)                 9.000000000000000E+05       /* I =  5 */
(PID.TID 0000.0001)     ;
(PID.TID 0000.0001) yC =  /* yC(1,:,1,:) : P-point Y coord ( deg. or m if cartesian) */
(PID.TID 0000.0001)                 1.000000000000000E+05,      /* J =  1 */
(PID.TID 0000.0001)                 3.000000000000000E+05,      /* J =  2 */
(PID.TID 0000.0001)                 5.000000000000000E+05,      /* J =  3 */
(PID.TID 0000.0001)                 7.000000000000000E+05,      /* J =  4 */
(PID.TID 0000.0001)                 9.000000000000000E+05       /* J =  5 */
(PID.TID 0000.0001)     ;
(PID.TID 0000.0001) rcoord = /* P-point R coordinate (  units of r ) */
(PID.TID 0000.0001)                -5.000000000000000E+01,      /* K =  1 */
(PID.TID 0000.0001)                -3.000000000000000E+02,      /* K =  2 */
(PID.TID 0000.0001)                -7.500000000000000E+02,      /* K =  3 */
(PID.TID 0000.0001)                -3.500000000000000E+03       /* K =  4 */
(PID.TID 0000.0001)     ;
(PID.TID 0000.0001) rF =   /* W-Interf. R coordinate (  units of r ) */
(PID.TID 0000.0001)                 0.000000000000000E+00,      /* K =  1 */
(PID.TID 0000.0001)                -1.000000000000000E+02,      /* K =  2 */
(PID.TID 0000.0001)                -5.000000000000000E+02,      /* K =  3 */
(PID.TID 0000.0001)                -1.000000000000000E+03,      /* K =  4 */
(PID.TID 0000.0001)                -6.000000000000000E+03       /* K =  5 */
(PID.TID 0000.0001)     ;
(PID.TID 0000.0001) deepFacC = /* deep-model grid factor @ cell-Center (-) */
(PID.TID 0000.0001)     4 @  1.000000000000000E+00              /* K =  1:  4 */
(PID.TID 0000.0001)     ;
(PID.TID 0000.0001) deepFacF = /* deep-model grid factor @ W-Interface (-) */
(PID.TID 0000.0001)     5 @  1.000000000000000E+00              /* K =  1:  5 */
(PID.TID 0000.0001)     ;
(PID.TID 0000.0001) rVel2wUnit = /* convert units: rVel -> wSpeed (=1 if z-coord)*/
(PID.TID 0000.0001)     5 @  1.000000000000000E+00              /* K =  1:  5 */
(PID.TID 0000.0001)     ;
(PID.TID 0000.0001) wUnit2rVel = /* convert units: wSpeed -> rVel (=1 if z-coord)*/
(PID.TID 0000.0001)     5 @  1.000000000000000E+00              /* K =  1:  5 */
(PID.TID 0000.0001)     ;
(PID.TID 0000.0001) dBdrRef = /* Vertical grad. of reference buoyancy [(m/s/r)^2] */
(PID.TID 0000.0001)     4 @  0.000000000000000E+00              /* K =  1:  4 */
(PID.TID 0000.0001)     ;
(PID.TID 0000.0001) rotateGrid = /* use rotated grid ( True/False ) */
(PID.TID 0000.0001)                   F
(PID.TID 0000.0001)     ;
(PID.TID 0000.0001) phiEuler = /* Euler angle, rotation about original z-coordinate [rad] */
(PID.TID 0000.0001)                 0.000000000000000E+00
(PID.TID 0000.0001)     ;
(PID.TID 0000.0001) thetaEuler = /* Euler angle, rotation about new x-coordinate [rad] */
(PID.TID 0000.0001)                 0.000000000000000E+00
(PID.TID 0000.0001)     ;
(PID.TID 0000.0001) psiEuler = /* Euler angle, rotation about new z-coordinate [rad] */
(PID.TID 0000.0001)                 0.000000000000000E+00
(PID.TID 0000.0001)     ;
(PID.TID 0000.0001) dxF =  /* dxF(:,1,:,1) ( units: m ) */
(PID.TID 0000.0001)     5 @  2.000000000000000E+05              /* I =  1:  5 */
(PID.TID 0000.0001)     ;
(PID.TID 0000.0001) dxF =  /* dxF(1,:,1,:) ( units: m ) */
(PID.TID 0000.0001)     5 @  2.000000000000000E+05              /* J =  1:  5 */
(PID.TID 0000.0001)     ;
(PID.TID 0000.0001) dyF =  /* dyF(:,1,:,1) ( units: m ) */
(PID.TID 0000.0001)     5 @  2.000000000000000E+05              /* I =  1:  5 */
(PID.TID 0000.0001)     ;
(PID.TID 0000.0001) dyF =  /* dyF(1,:,1,:) ( units: m ) */
(PID.TID 0000.0001)     5 @  2.000000000000000E+05              /* J =  1:  5 */
(PID.TID 0000.0001)     ;
(PID.TID 0000.0001) dxG =  /* dxG(:,1,:,1) ( units: m ) */
(PID.TID 0000.0001)     5 @  2.000000000000000E+05              /* I =  1:  5 */
(PID.TID 0000.0001)     ;
(PID.TID 0000.0001) dxG =  /* dxG(1,:,1,:) ( units: m ) */
(PID.TID 0000.0001)     5 @  2.000000000000000E+05              /* J =  1:  5 */
(PID.TID 0000.0001)     ;
(PID.TID 0000.0001) dyG =  /* dyG(:,1,:,1) ( units: m ) */
(PID.TID 0000.0001)     5 @  2.000000000000000E+05              /* I =  1:  5 */
(PID.TID 0000.0001)     ;
(PID.TID 0000.0001) dyG =  /* dyG(1,:,1,:) ( units: m ) */
(PID.TID 0000.0001)     5 @  2.000000000000000E+05              /* J =  1:  5 */
(PID.TID 0000.0001)     ;
(PID.TID 0000.0001) dxC =  /* dxC(:,1,:,1) ( units: m ) */
(PID.TID 0000.0001)     5 @  2.000000000000000E+05              /* I =  1:  5 */
(PID.TID 0000.0001)     ;
(PID.TID 0000.0001) dxC =  /* dxC(1,:,1,:) ( units: m ) */
(PID.TID 0000.0001)     5 @  2.000000000000000E+05              /* J =  1:  5 */
(PID.TID 0000.0001)     ;
(PID.TID 0000.0001) dyC =  /* dyC(:,1,:,1) ( units: m ) */
(PID.TID 0000.0001)     5 @  2.000000000000000E+05              /* I =  1:  5 */
(PID.TID 0000.0001)     ;
(PID.TID 0000.0001) dyC =  /* dyC(1,:,1,:) ( units: m ) */
(PID.TID 0000.0001)     5 @  2.000000000000000E+05              /* J =  1:  5 */
(PID.TID 0000.0001)     ;
(PID.TID 0000.0001) dxV =  /* dxV(:,1,:,1) ( units: m ) */
(PID.TID 0000.0001)     5 @  2.000000000000000E+05              /* I =  1:  5 */
(PID.TID 0000.0001)     ;
(PID.TID 0000.0001) dxV =  /* dxV(1,:,1,:) ( units: m ) */
(PID.TID 0000.0001)     5 @  2.000000000000000E+05              /* J =  1:  5 */
(PID.TID 0000.0001)     ;
(PID.TID 0000.0001) dyU =  /* dyU(:,1,:,1) ( units: m ) */
(PID.TID 0000.0001)     5 @  2.000000000000000E+05              /* I =  1:  5 */
(PID.TID 0000.0001)     ;
(PID.TID 0000.0001) dyU =  /* dyU(1,:,1,:) ( units: m ) */
(PID.TID 0000.0001)     5 @  2.000000000000000E+05              /* J =  1:  5 */
(PID.TID 0000.0001)     ;
(PID.TID 0000.0001) rA  =  /* rA (:,1,:,1) ( units: m^2 ) */
(PID.TID 0000.0001)     5 @  4.000000000000000E+10              /* I =  1:  5 */
(PID.TID 0000.0001)     ;
(PID.TID 0000.0001) rA  =  /* rA (1,:,1,:) ( units: m^2 ) */
(PID.TID 0000.0001)     5 @  4.000000000000000E+10              /* J =  1:  5 */
(PID.TID 0000.0001)     ;
(PID.TID 0000.0001) rAw =  /* rAw(:,1,:,1) ( units: m^2 ) */
(PID.TID 0000.0001)     5 @  4.000000000000000E+10              /* I =  1:  5 */
(PID.TID 0000.0001)     ;
(PID.TID 0000.0001) rAw =  /* rAw(1,:,1,:) ( units: m^2 ) */
(PID.TID 0000.0001)     5 @  4.000000000000000E+10              /* J =  1:  5 */
(PID.TID 0000.0001)     ;
(PID.TID 0000.0001) rAs =  /* rAs(:,1,:,1) ( units: m^2 ) */
(PID.TID 0000.0001)     5 @  4.000000000000000E+10              /* I =  1:  5 */
(PID.TID 0000.0001)     ;
(PID.TID 0000.0001) rAs =  /* rAs(1,:,1,:) ( units: m^2 ) */
(PID.TID 0000.0001)     5 @  4.000000000000000E+10              /* J =  1:  5 */
(PID.TID 0000.0001)     ;
(PID.TID 0000.0001) globalArea = /* Integrated horizontal Area (m^2) */
(PID.TID 0000.0001)                 1.000000000000000E+12
(PID.TID 0000.0001)     ;
(PID.TID 0000.0001) // =======================================================
(PID.TID 0000.0001) // End of Model config. summary
(PID.TID 0000.0001) // =======================================================
(PID.TID 0000.0001) 
(PID.TID 0000.0001) == Packages configuration : Check & print summary ==
(PID.TID 0000.0001) 
(PID.TID 0000.0001) CTRL_CHECK: ctrl package
(PID.TID 0000.0001) COST_CHECK: cost package
(PID.TID 0000.0001) GRDCHK_CHECK: grdchk package
(PID.TID 0000.0001) GAD_CHECK: #define ALLOW_GENERIC_ADVDIFF
(PID.TID 0000.0001) // =======================================================
(PID.TID 0000.0001) // CONFIG_CHECK : Normal End
(PID.TID 0000.0001) // =======================================================
(PID.TID 0000.0001) 
(PID.TID 0000.0001) INI_CG2D: CG2D normalisation factor =  1.9999999999999996E-04
(PID.TID 0000.0001) 
                     ctrl_depth_ini: ctrl update R_low,
                                     adding the control vector.
(PID.TID 0000.0001) Start initial hydrostatic pressure computation
(PID.TID 0000.0001) Pressure is predetermined for buoyancyRelation OCEANIC
(PID.TID 0000.0001) 
(PID.TID 0000.0001) // =======================================================
(PID.TID 0000.0001) // Begin MONITOR dynamic field statistics
(PID.TID 0000.0001) // =======================================================
(PID.TID 0000.0001) %MON time_tsnumber                =                     0
(PID.TID 0000.0001) %MON time_secondsf                =   0.0000000000000E+00
(PID.TID 0000.0001) %MON dynstat_eta_max              =   0.0000000000000E+00
(PID.TID 0000.0001) %MON dynstat_eta_min              =   0.0000000000000E+00
(PID.TID 0000.0001) %MON dynstat_eta_mean             =   0.0000000000000E+00
(PID.TID 0000.0001) %MON dynstat_eta_sd               =   0.0000000000000E+00
(PID.TID 0000.0001) %MON dynstat_eta_del2             =   0.0000000000000E+00
(PID.TID 0000.0001) %MON dynstat_uvel_max             =   0.0000000000000E+00
(PID.TID 0000.0001) %MON dynstat_uvel_min             =   0.0000000000000E+00
(PID.TID 0000.0001) %MON dynstat_uvel_mean            =   0.0000000000000E+00
(PID.TID 0000.0001) %MON dynstat_uvel_sd              =   0.0000000000000E+00
(PID.TID 0000.0001) %MON dynstat_uvel_del2            =   0.0000000000000E+00
(PID.TID 0000.0001) %MON dynstat_vvel_max             =   0.0000000000000E+00
(PID.TID 0000.0001) %MON dynstat_vvel_min             =   0.0000000000000E+00
(PID.TID 0000.0001) %MON dynstat_vvel_mean            =   0.0000000000000E+00
(PID.TID 0000.0001) %MON dynstat_vvel_sd              =   0.0000000000000E+00
(PID.TID 0000.0001) %MON dynstat_vvel_del2            =   0.0000000000000E+00
(PID.TID 0000.0001) %MON dynstat_wvel_max             =  -0.0000000000000E+00
(PID.TID 0000.0001) %MON dynstat_wvel_min             =  -0.0000000000000E+00
(PID.TID 0000.0001) %MON dynstat_wvel_mean            =   0.0000000000000E+00
(PID.TID 0000.0001) %MON dynstat_wvel_sd              =   0.0000000000000E+00
(PID.TID 0000.0001) %MON dynstat_wvel_del2            =   0.0000000000000E+00
(PID.TID 0000.0001) %MON dynstat_theta_max            =   4.0000000000000E+00
(PID.TID 0000.0001) %MON dynstat_theta_min            =   4.0000000000000E+00
(PID.TID 0000.0001) %MON dynstat_theta_mean           =   4.0000000000000E+00
(PID.TID 0000.0001) %MON dynstat_theta_sd             =   0.0000000000000E+00
(PID.TID 0000.0001) %MON dynstat_theta_del2           =   0.0000000000000E+00
(PID.TID 0000.0001) %MON dynstat_salt_max             =   3.5000000000000E+01
(PID.TID 0000.0001) %MON dynstat_salt_min             =   3.5000000000000E+01
(PID.TID 0000.0001) %MON dynstat_salt_mean            =   3.5000000000000E+01
(PID.TID 0000.0001) %MON dynstat_salt_sd              =   0.0000000000000E+00
(PID.TID 0000.0001) %MON dynstat_salt_del2            =   0.0000000000000E+00
(PID.TID 0000.0001) %MON advcfl_uvel_max              =   0.0000000000000E+00
(PID.TID 0000.0001) %MON advcfl_vvel_max              =   0.0000000000000E+00
(PID.TID 0000.0001) %MON advcfl_wvel_max              =   0.0000000000000E+00
(PID.TID 0000.0001) %MON advcfl_W_hf_max              =   0.0000000000000E+00
(PID.TID 0000.0001) %MON pe_b_mean                    =   0.0000000000000E+00
(PID.TID 0000.0001) %MON ke_max                       =   0.0000000000000E+00
(PID.TID 0000.0001) %MON ke_mean                      =   0.0000000000000E+00
(PID.TID 0000.0001) %MON ke_vol                       =   4.4009158039362E+15
(PID.TID 0000.0001) // =======================================================
(PID.TID 0000.0001) // End MONITOR dynamic field statistics
(PID.TID 0000.0001) // =======================================================
(PID.TID 0000.0001) SOLVE_FOR_PRESSURE: putPmEinXvector =    F
 cg2d: Sum(rhs),rhsMax =   0.00000000000000E+00  0.00000000000000E+00
 cg2d: Sum(rhs),rhsMax =  -2.49999999999995E+01  6.03492218443701E-05
 cg2d: Sum(rhs),rhsMax =  -1.81034404639062E+01  2.18766023587219E-04
 cg2d: Sum(rhs),rhsMax =  -1.54955562832147E+01  4.32479836297448E-04
 cg2d: Sum(rhs),rhsMax =  -1.41111452329495E+01  6.49958988323421E-04
 cg2d: Sum(rhs),rhsMax =  -1.31144322332612E+01  8.30737102828389E-04
 cg2d: Sum(rhs),rhsMax =  -1.21209090325388E+01  9.52510661965289E-04
 cg2d: Sum(rhs),rhsMax =  -1.07124742372069E+01  1.02806631163207E-03
 cg2d: Sum(rhs),rhsMax =  -7.41375936665709E+00  1.27086596334072E-03
 cg2d: Sum(rhs),rhsMax =  -4.70217533455405E+00  1.51019014093810E-03
 cg2d: Sum(rhs),rhsMax =  -2.72440685927924E+00  1.65833738310011E-03
 cg2d: Sum(rhs),rhsMax =  -1.27958669047308E+00  1.70565508827135E-03
(PID.TID 0000.0001)                    cg2d_init_res =    3.28931945877901E-01
(PID.TID 0000.0001)                       cg2d_iters =    15
(PID.TID 0000.0001)                         cg2d_res =    3.65014481666670E-17
(PID.TID 0000.0001) // =======================================================
(PID.TID 0000.0001) // Begin MONITOR dynamic field statistics
(PID.TID 0000.0001) // =======================================================
(PID.TID 0000.0001) %MON time_tsnumber                =                    12
(PID.TID 0000.0001) %MON time_secondsf                =   4.3200000000000E+04
(PID.TID 0000.0001) %MON dynstat_eta_max              =   2.4526740806100E-04
(PID.TID 0000.0001) %MON dynstat_eta_min              =   6.1065609995090E-05
(PID.TID 0000.0001) %MON dynstat_eta_mean             =   1.4142817400693E-04
(PID.TID 0000.0001) %MON dynstat_eta_sd               =   6.2646419328255E-05
(PID.TID 0000.0001) %MON dynstat_eta_del2             =   1.8773690240601E-05
(PID.TID 0000.0001) %MON dynstat_uvel_max             =   6.0294166414923E-05
(PID.TID 0000.0001) %MON dynstat_uvel_min             =  -6.2312985740443E-03
(PID.TID 0000.0001) %MON dynstat_uvel_mean            =  -1.6355645184039E-04
(PID.TID 0000.0001) %MON dynstat_uvel_sd              =   8.3355810737477E-04
(PID.TID 0000.0001) %MON dynstat_uvel_del2            =   1.0724583497337E-04
(PID.TID 0000.0001) %MON dynstat_vvel_max             =   6.8951363007673E-03
(PID.TID 0000.0001) %MON dynstat_vvel_min             =  -3.1420568481397E-04
(PID.TID 0000.0001) %MON dynstat_vvel_mean            =   8.3848888000931E-05
(PID.TID 0000.0001) %MON dynstat_vvel_sd              =   7.6765140031461E-04
(PID.TID 0000.0001) %MON dynstat_vvel_del2            =   1.1668214303234E-04
(PID.TID 0000.0001) %MON dynstat_wvel_max             =   1.0276979434182E-06
(PID.TID 0000.0001) %MON dynstat_wvel_min             =  -1.2563126468518E-06
(PID.TID 0000.0001) %MON dynstat_wvel_mean            =  -1.4197159932581E-09
(PID.TID 0000.0001) %MON dynstat_wvel_sd              =   7.7903550130837E-07
(PID.TID 0000.0001) %MON dynstat_wvel_del2            =   1.4015749752175E-07
(PID.TID 0000.0001) %MON dynstat_theta_max            =   4.0000000000000E+00
(PID.TID 0000.0001) %MON dynstat_theta_min            =   4.0000000000000E+00
(PID.TID 0000.0001) %MON dynstat_theta_mean           =   4.0000000000000E+00
(PID.TID 0000.0001) %MON dynstat_theta_sd             =   0.0000000000000E+00
(PID.TID 0000.0001) %MON dynstat_theta_del2           =   0.0000000000000E+00
(PID.TID 0000.0001) %MON dynstat_salt_max             =   3.5000000000000E+01
(PID.TID 0000.0001) %MON dynstat_salt_min             =   3.5000000000000E+01
(PID.TID 0000.0001) %MON dynstat_salt_mean            =   3.5000000000000E+01
(PID.TID 0000.0001) %MON dynstat_salt_sd              =   0.0000000000000E+00
(PID.TID 0000.0001) %MON dynstat_salt_del2            =   0.0000000000000E+00
(PID.TID 0000.0001) %MON advcfl_uvel_max              =   1.1216337433280E-04
(PID.TID 0000.0001) %MON advcfl_vvel_max              =   1.2411245341381E-04
(PID.TID 0000.0001) %MON advcfl_wvel_max              =   1.6766020051950E-05
(PID.TID 0000.0001) %MON advcfl_W_hf_max              =   4.1915050129875E-05
(PID.TID 0000.0001) %MON pe_b_mean                    =   2.6667061766666E-11
(PID.TID 0000.0001) %MON ke_max                       =   3.8468619621137E-05
(PID.TID 0000.0001) %MON ke_mean                      =   6.5894456986640E-07
(PID.TID 0000.0001) %MON ke_vol                       =   4.4009158039362E+15
(PID.TID 0000.0001) // =======================================================
(PID.TID 0000.0001) // End MONITOR dynamic field statistics
(PID.TID 0000.0001) // =======================================================
 cg2d: Sum(rhs),rhsMax =  -3.29564699152565E-01  1.66071960615390E-03
 cg2d: Sum(rhs),rhsMax =   5.21320406653943E-02  1.54812756163632E-03
 cg2d: Sum(rhs),rhsMax =  -2.86625374400561E-01  1.40338816101555E-03
 cg2d: Sum(rhs),rhsMax =  -1.30315843370187E+00  1.44268599687868E-03
 cg2d: Sum(rhs),rhsMax =  -2.68067690299426E+00  1.50836886631255E-03
 cg2d: Sum(rhs),rhsMax =  -4.07407453351544E+00  1.58424366916569E-03
 cg2d: Sum(rhs),rhsMax =  -5.18272347948933E+00  1.66593592879081E-03
 cg2d: Sum(rhs),rhsMax =  -5.80990598228075E+00  1.74846175380778E-03
 cg2d: Sum(rhs),rhsMax =  -5.87740627497562E+00  1.82725971218559E-03
 cg2d: Sum(rhs),rhsMax =  -5.41358311299291E+00  1.89900434709078E-03
 cg2d: Sum(rhs),rhsMax =  -4.53080676713558E+00  1.96213934573591E-03
 cg2d: Sum(rhs),rhsMax =  -3.22587898908490E+00  2.12611202720459E-03
(PID.TID 0000.0001)                    cg2d_init_res =    3.42829930432872E-01
(PID.TID 0000.0001)                       cg2d_iters =    14
(PID.TID 0000.0001)                         cg2d_res =    2.46991612461676E-14
(PID.TID 0000.0001) // =======================================================
(PID.TID 0000.0001) // Begin MONITOR dynamic field statistics
(PID.TID 0000.0001) // =======================================================
(PID.TID 0000.0001) %MON time_tsnumber                =                    24
(PID.TID 0000.0001) %MON time_secondsf                =   8.6400000000000E+04
(PID.TID 0000.0001) %MON dynstat_eta_max              =   5.7979748274705E-04
(PID.TID 0000.0001) %MON dynstat_eta_min              =   3.2636540223300E-04
(PID.TID 0000.0001) %MON dynstat_eta_mean             =   4.4443599158160E-04
(PID.TID 0000.0001) %MON dynstat_eta_sd               =   8.4689967963543E-05
(PID.TID 0000.0001) %MON dynstat_eta_del2             =   2.5501352593503E-05
(PID.TID 0000.0001) %MON dynstat_uvel_max             =   6.7841782473987E-05
(PID.TID 0000.0001) %MON dynstat_uvel_min             =  -6.4443780978032E-03
(PID.TID 0000.0001) %MON dynstat_uvel_mean            =  -1.7306766918973E-04
(PID.TID 0000.0001) %MON dynstat_uvel_sd              =   7.2504460516430E-04
(PID.TID 0000.0001) %MON dynstat_uvel_del2            =   1.1004249497325E-04
(PID.TID 0000.0001) %MON dynstat_vvel_max             =   1.1438968082342E-02
(PID.TID 0000.0001) %MON dynstat_vvel_min             =  -3.6725089644924E-05
(PID.TID 0000.0001) %MON dynstat_vvel_mean            =   2.5160853672968E-04
(PID.TID 0000.0001) %MON dynstat_vvel_sd              =   1.5360267325394E-03
(PID.TID 0000.0001) %MON dynstat_vvel_del2            =   1.0978264787475E-04
(PID.TID 0000.0001) %MON dynstat_wvel_max             =   9.2961409099219E-07
(PID.TID 0000.0001) %MON dynstat_wvel_min             =  -6.7930212264243E-07
(PID.TID 0000.0001) %MON dynstat_wvel_mean            =   3.0021258930781E-10
(PID.TID 0000.0001) %MON dynstat_wvel_sd              =   5.8405797772280E-07
(PID.TID 0000.0001) %MON dynstat_wvel_del2            =   1.7189614548386E-07
(PID.TID 0000.0001) %MON dynstat_theta_max            =   4.0000000000000E+00
(PID.TID 0000.0001) %MON dynstat_theta_min            =   4.0000000000000E+00
(PID.TID 0000.0001) %MON dynstat_theta_mean           =   4.0000000000000E+00
(PID.TID 0000.0001) %MON dynstat_theta_sd             =   0.0000000000000E+00
(PID.TID 0000.0001) %MON dynstat_theta_del2           =   0.0000000000000E+00
(PID.TID 0000.0001) %MON dynstat_salt_max             =   3.5000000000000E+01
(PID.TID 0000.0001) %MON dynstat_salt_min             =   3.5000000000000E+01
(PID.TID 0000.0001) %MON dynstat_salt_mean            =   3.5000000000000E+01
(PID.TID 0000.0001) %MON dynstat_salt_sd              =   0.0000000000000E+00
(PID.TID 0000.0001) %MON dynstat_salt_del2            =   0.0000000000000E+00
(PID.TID 0000.0001) %MON advcfl_uvel_max              =   1.1599880576046E-04
(PID.TID 0000.0001) %MON advcfl_vvel_max              =   2.0590142548215E-04
(PID.TID 0000.0001) %MON advcfl_wvel_max              =   1.1845852451611E-05
(PID.TID 0000.0001) %MON advcfl_W_hf_max              =   2.9614631129028E-05
(PID.TID 0000.0001) %MON pe_b_mean                    =   2.2814174497810E-10
(PID.TID 0000.0001) %MON ke_max                       =   6.7077017484670E-05
(PID.TID 0000.0001) %MON ke_mean                      =   1.4891635382138E-06
(PID.TID 0000.0001) %MON ke_vol                       =   4.4009158039362E+15
(PID.TID 0000.0001) // =======================================================
(PID.TID 0000.0001) // End MONITOR dynamic field statistics
(PID.TID 0000.0001) // =======================================================
 cg2d: Sum(rhs),rhsMax =  -2.04447211883242E+00  2.24837953875887E-03
 cg2d: Sum(rhs),rhsMax =  -1.10818137305929E+00  2.30404049287479E-03
 cg2d: Sum(rhs),rhsMax =  -4.90484880946382E-01  2.29576532537697E-03
 cg2d: Sum(rhs),rhsMax =  -2.61247064583523E-01  2.23814842293959E-03
 cg2d: Sum(rhs),rhsMax =  -4.50921969321612E-01  2.26266907028511E-03
 cg2d: Sum(rhs),rhsMax =  -1.00469610672039E+00  2.31946123117386E-03
 cg2d: Sum(rhs),rhsMax =  -1.78565331428761E+00  2.37599941654387E-03
 cg2d: Sum(rhs),rhsMax =  -2.62429308819162E+00  2.42805543472492E-03
 cg2d: Sum(rhs),rhsMax =  -3.35748486680844E+00  2.47123045079746E-03
 cg2d: Sum(rhs),rhsMax =  -3.85508917834432E+00  2.50195598359617E-03
 cg2d: Sum(rhs),rhsMax =  -4.03589978211305E+00  2.51830322545866E-03
 cg2d: Sum(rhs),rhsMax =  -3.87512848171552E+00  2.52047519086831E-03
(PID.TID 0000.0001)                    cg2d_init_res =    2.33015551533523E-01
(PID.TID 0000.0001)                       cg2d_iters =    14
(PID.TID 0000.0001)                         cg2d_res =    7.19966733593989E-14
(PID.TID 0000.0001) // =======================================================
(PID.TID 0000.0001) // Begin MONITOR dynamic field statistics
(PID.TID 0000.0001) // =======================================================
(PID.TID 0000.0001) %MON time_tsnumber                =                    36
(PID.TID 0000.0001) %MON time_secondsf                =   1.2960000000000E+05
(PID.TID 0000.0001) %MON dynstat_eta_max              =   7.5759442548389E-04
(PID.TID 0000.0001) %MON dynstat_eta_min              =   5.2866006154915E-04
(PID.TID 0000.0001) %MON dynstat_eta_mean             =   6.3291230493351E-04
(PID.TID 0000.0001) %MON dynstat_eta_sd               =   8.2256111321630E-05
(PID.TID 0000.0001) %MON dynstat_eta_del2             =   2.4823335401778E-05
(PID.TID 0000.0001) %MON dynstat_uvel_max             =   1.1036128709252E-04
(PID.TID 0000.0001) %MON dynstat_uvel_min             =  -1.8819675496212E-03
(PID.TID 0000.0001) %MON dynstat_uvel_mean            =  -6.1684335664371E-05
(PID.TID 0000.0001) %MON dynstat_uvel_sd              =   2.2850585253250E-04
(PID.TID 0000.0001) %MON dynstat_uvel_del2            =   3.9573861830685E-05
(PID.TID 0000.0001) %MON dynstat_vvel_max             =   1.2947572307762E-02
(PID.TID 0000.0001) %MON dynstat_vvel_min             =  -8.6563188157009E-05
(PID.TID 0000.0001) %MON dynstat_vvel_mean            =   3.5235552401198E-04
(PID.TID 0000.0001) %MON dynstat_vvel_sd              =   1.8328698995202E-03
(PID.TID 0000.0001) %MON dynstat_vvel_del2            =   8.6136768532499E-05
(PID.TID 0000.0001) %MON dynstat_wvel_max             =   8.7008377378037E-07
(PID.TID 0000.0001) %MON dynstat_wvel_min             =  -1.3324870991560E-06
(PID.TID 0000.0001) %MON dynstat_wvel_mean            =   1.3753465598261E-09
(PID.TID 0000.0001) %MON dynstat_wvel_sd              =   6.2122331460753E-07
(PID.TID 0000.0001) %MON dynstat_wvel_del2            =   1.3414080483190E-07
(PID.TID 0000.0001) %MON dynstat_theta_max            =   4.0000000000000E+00
(PID.TID 0000.0001) %MON dynstat_theta_min            =   4.0000000000000E+00
(PID.TID 0000.0001) %MON dynstat_theta_mean           =   4.0000000000000E+00
(PID.TID 0000.0001) %MON dynstat_theta_sd             =   0.0000000000000E+00
(PID.TID 0000.0001) %MON dynstat_theta_del2           =   0.0000000000000E+00
(PID.TID 0000.0001) %MON dynstat_salt_max             =   3.5000000000000E+01
(PID.TID 0000.0001) %MON dynstat_salt_min             =   3.5000000000000E+01
(PID.TID 0000.0001) %MON dynstat_salt_mean            =   3.5000000000000E+01
(PID.TID 0000.0001) %MON dynstat_salt_sd              =   0.0000000000000E+00
(PID.TID 0000.0001) %MON dynstat_salt_del2            =   0.0000000000000E+00
(PID.TID 0000.0001) %MON advcfl_uvel_max              =   3.3875415893181E-05
(PID.TID 0000.0001) %MON advcfl_vvel_max              =   2.3305630153972E-04
(PID.TID 0000.0001) %MON advcfl_wvel_max              =   1.3681155737382E-05
(PID.TID 0000.0001) %MON advcfl_W_hf_max              =   3.4202889343454E-05
(PID.TID 0000.0001) %MON pe_b_mean                    =   4.5400154691719E-10
(PID.TID 0000.0001) %MON ke_max                       =   8.2665292286786E-05
(PID.TID 0000.0001) %MON ke_mean                      =   1.7697931828884E-06
(PID.TID 0000.0001) %MON ke_vol                       =   4.4009158039362E+15
(PID.TID 0000.0001) // =======================================================
(PID.TID 0000.0001) // End MONITOR dynamic field statistics
(PID.TID 0000.0001) // =======================================================
 cg2d: Sum(rhs),rhsMax =  -3.40600368805607E+00  2.51092921751125E-03
 cg2d: Sum(rhs),rhsMax =  -2.61682443313498E+00  2.58874087416429E-03
 cg2d: Sum(rhs),rhsMax =  -1.83238712200575E+00  2.61669730048879E-03
 cg2d: Sum(rhs),rhsMax =  -1.17513338209913E+00  2.56005946296687E-03
 cg2d: Sum(rhs),rhsMax =  -7.11994618995474E-01  2.47855830238831E-03
 cg2d: Sum(rhs),rhsMax =  -5.26422152819522E-01  2.47042092565892E-03
 cg2d: Sum(rhs),rhsMax =  -6.78930216954530E-01  2.49676870345940E-03
 cg2d: Sum(rhs),rhsMax =  -1.12673722382142E+00  2.53652611463688E-03
 cg2d: Sum(rhs),rhsMax =  -1.75981625889752E+00  2.58504763845509E-03
 cg2d: Sum(rhs),rhsMax =  -2.43940636469674E+00  2.63568090232622E-03
 cg2d: Sum(rhs),rhsMax =  -3.03203010255973E+00  2.68092813759028E-03
 cg2d: Sum(rhs),rhsMax =  -3.40991311853902E+00  2.73286304448481E-03
(PID.TID 0000.0001)                    cg2d_init_res =    1.34801658790775E-01
(PID.TID 0000.0001)                       cg2d_iters =    14
(PID.TID 0000.0001)                         cg2d_res =    7.73137702801053E-14
(PID.TID 0000.0001) // =======================================================
(PID.TID 0000.0001) // Begin MONITOR dynamic field statistics
(PID.TID 0000.0001) // =======================================================
(PID.TID 0000.0001) %MON time_tsnumber                =                    48
(PID.TID 0000.0001) %MON time_secondsf                =   1.7280000000000E+05
(PID.TID 0000.0001) %MON dynstat_eta_max              =   7.3211564950624E-04
(PID.TID 0000.0001) %MON dynstat_eta_min              =   5.0057127856482E-04
(PID.TID 0000.0001) %MON dynstat_eta_mean             =   6.0385989541704E-04
(PID.TID 0000.0001) %MON dynstat_eta_sd               =   7.5540803583716E-05
(PID.TID 0000.0001) %MON dynstat_eta_del2             =   2.4287420960805E-05
(PID.TID 0000.0001) %MON dynstat_uvel_max             =   1.9294775347149E-03
(PID.TID 0000.0001) %MON dynstat_uvel_min             =  -1.2535253296377E-04
(PID.TID 0000.0001) %MON dynstat_uvel_mean            =   7.0472439030430E-05
(PID.TID 0000.0001) %MON dynstat_uvel_sd              =   2.4814023814711E-04
(PID.TID 0000.0001) %MON dynstat_uvel_del2            =   3.3520291439674E-05
(PID.TID 0000.0001) %MON dynstat_vvel_max             =   1.1907122242336E-02
(PID.TID 0000.0001) %MON dynstat_vvel_min             =  -7.6854757138051E-05
(PID.TID 0000.0001) %MON dynstat_vvel_mean            =   3.3026959483785E-04
(PID.TID 0000.0001) %MON dynstat_vvel_sd              =   1.7065724998475E-03
(PID.TID 0000.0001) %MON dynstat_vvel_del2            =   6.5625101815959E-05
(PID.TID 0000.0001) %MON dynstat_wvel_max             =   5.5106758024674E-07
(PID.TID 0000.0001) %MON dynstat_wvel_min             =  -4.7283529660537E-07
(PID.TID 0000.0001) %MON dynstat_wvel_mean            =   1.5416046248794E-09
(PID.TID 0000.0001) %MON dynstat_wvel_sd              =   2.9788275795432E-07
(PID.TID 0000.0001) %MON dynstat_wvel_del2            =   9.3266771681172E-08
(PID.TID 0000.0001) %MON dynstat_theta_max            =   4.0000000000000E+00
(PID.TID 0000.0001) %MON dynstat_theta_min            =   4.0000000000000E+00
(PID.TID 0000.0001) %MON dynstat_theta_mean           =   4.0000000000000E+00
(PID.TID 0000.0001) %MON dynstat_theta_sd             =   0.0000000000000E+00
(PID.TID 0000.0001) %MON dynstat_theta_del2           =   0.0000000000000E+00
(PID.TID 0000.0001) %MON dynstat_salt_max             =   3.5000000000000E+01
(PID.TID 0000.0001) %MON dynstat_salt_min             =   3.5000000000000E+01
(PID.TID 0000.0001) %MON dynstat_salt_mean            =   3.5000000000000E+01
(PID.TID 0000.0001) %MON dynstat_salt_sd              =   0.0000000000000E+00
(PID.TID 0000.0001) %MON dynstat_salt_del2            =   0.0000000000000E+00
(PID.TID 0000.0001) %MON advcfl_uvel_max              =   3.4730595624869E-05
(PID.TID 0000.0001) %MON advcfl_vvel_max              =   2.1432820036205E-04
(PID.TID 0000.0001) %MON advcfl_wvel_max              =   8.5304960984616E-06
(PID.TID 0000.0001) %MON advcfl_W_hf_max              =   1.9838432888883E-05
(PID.TID 0000.0001) %MON pe_b_mean                    =   4.1277371795493E-10
(PID.TID 0000.0001) %MON ke_max                       =   7.1228073413104E-05
(PID.TID 0000.0001) %MON ke_mean                      =   1.5440038224804E-06
(PID.TID 0000.0001) %MON ke_vol                       =   4.4009158039362E+15
(PID.TID 0000.0001) // =======================================================
(PID.TID 0000.0001) // End MONITOR dynamic field statistics
(PID.TID 0000.0001) // =======================================================
 cg2d: Sum(rhs),rhsMax =  -3.48046023235821E+00  2.80943922930574E-03
 cg2d: Sum(rhs),rhsMax =  -3.32063073087977E+00  2.84054009236554E-03
 cg2d: Sum(rhs),rhsMax =  -2.96079447598364E+00  2.82589058192359E-03
 cg2d: Sum(rhs),rhsMax =  -2.32992811105154E+00  2.92147975447444E-03
 cg2d: Sum(rhs),rhsMax =  -1.72242456195876E+00  2.94384963610315E-03
 cg2d: Sum(rhs),rhsMax =  -1.21221903664759E+00  2.89157780595211E-03
 cg2d: Sum(rhs),rhsMax =  -8.69698394722568E-01  2.78046458206127E-03
 cg2d: Sum(rhs),rhsMax =  -7.64867805246307E-01  2.63730950806146E-03
 cg2d: Sum(rhs),rhsMax =  -9.31747849420197E-01  2.54529703304593E-03
 cg2d: Sum(rhs),rhsMax =  -1.31074338891574E+00  2.59464768533879E-03
 cg2d: Sum(rhs),rhsMax =  -1.82960843215049E+00  2.67470088166808E-03
 cg2d: Sum(rhs),rhsMax =  -2.36415409295813E+00  2.77096212192831E-03
(PID.TID 0000.0001)                    cg2d_init_res =    1.40501452001064E-01
(PID.TID 0000.0001)                       cg2d_iters =    14
(PID.TID 0000.0001)                         cg2d_res =    5.02991681969387E-14
(PID.TID 0000.0001) // =======================================================
(PID.TID 0000.0001) // Begin MONITOR dynamic field statistics
(PID.TID 0000.0001) // =======================================================
(PID.TID 0000.0001) %MON time_tsnumber                =                    60
(PID.TID 0000.0001) %MON time_secondsf                =   2.1600000000000E+05
(PID.TID 0000.0001) %MON dynstat_eta_max              =   5.4597414746449E-04
(PID.TID 0000.0001) %MON dynstat_eta_min              =   3.1889129984899E-04
(PID.TID 0000.0001) %MON dynstat_eta_mean             =   4.2450359744087E-04
(PID.TID 0000.0001) %MON dynstat_eta_sd               =   7.2394391705008E-05
(PID.TID 0000.0001) %MON dynstat_eta_del2             =   2.4289919467653E-05
(PID.TID 0000.0001) %MON dynstat_uvel_max             =   2.7288959561322E-03
(PID.TID 0000.0001) %MON dynstat_uvel_min             =  -1.2151394941084E-04
(PID.TID 0000.0001) %MON dynstat_uvel_mean            =   1.2889482987333E-04
(PID.TID 0000.0001) %MON dynstat_uvel_sd              =   4.0667421161600E-04
(PID.TID 0000.0001) %MON dynstat_uvel_del2            =   3.5453390416871E-05
(PID.TID 0000.0001) %MON dynstat_vvel_max             =   1.0111433049374E-02
(PID.TID 0000.0001) %MON dynstat_vvel_min             =  -6.9878354584856E-05
(PID.TID 0000.0001) %MON dynstat_vvel_mean            =   2.2492321141225E-04
(PID.TID 0000.0001) %MON dynstat_vvel_sd              =   1.4010051719206E-03
(PID.TID 0000.0001) %MON dynstat_vvel_del2            =   7.4635570897415E-05
(PID.TID 0000.0001) %MON dynstat_wvel_max             =   6.5752912870401E-07
(PID.TID 0000.0001) %MON dynstat_wvel_min             =  -4.4367533934012E-07
(PID.TID 0000.0001) %MON dynstat_wvel_mean            =   1.5863149913986E-09
(PID.TID 0000.0001) %MON dynstat_wvel_sd              =   3.6181859037321E-07
(PID.TID 0000.0001) %MON dynstat_wvel_del2            =   1.1364273066845E-07
(PID.TID 0000.0001) %MON dynstat_theta_max            =   4.0000000000000E+00
(PID.TID 0000.0001) %MON dynstat_theta_min            =   4.0000000000000E+00
(PID.TID 0000.0001) %MON dynstat_theta_mean           =   4.0000000000000E+00
(PID.TID 0000.0001) %MON dynstat_theta_sd             =   0.0000000000000E+00
(PID.TID 0000.0001) %MON dynstat_theta_del2           =   0.0000000000000E+00
(PID.TID 0000.0001) %MON dynstat_salt_max             =   3.5000000000000E+01
(PID.TID 0000.0001) %MON dynstat_salt_min             =   3.5000000000000E+01
(PID.TID 0000.0001) %MON dynstat_salt_mean            =   3.5000000000000E+01
(PID.TID 0000.0001) %MON dynstat_salt_sd              =   0.0000000000000E+00
(PID.TID 0000.0001) %MON dynstat_salt_del2            =   0.0000000000000E+00
(PID.TID 0000.0001) %MON advcfl_uvel_max              =   4.9120127210380E-05
(PID.TID 0000.0001) %MON advcfl_vvel_max              =   1.8200579488873E-04
(PID.TID 0000.0001) %MON advcfl_wvel_max              =   1.0000347389244E-05
(PID.TID 0000.0001) %MON advcfl_W_hf_max              =   2.3671048633345E-05
(PID.TID 0000.0001) %MON pe_b_mean                    =   2.0668517588572E-10
(PID.TID 0000.0001) %MON ke_max                       =   5.1396462800041E-05
(PID.TID 0000.0001) %MON ke_mean                      =   1.0977018671709E-06
(PID.TID 0000.0001) %MON ke_vol                       =   4.4009158039362E+15
(PID.TID 0000.0001) // =======================================================
(PID.TID 0000.0001) // End MONITOR dynamic field statistics
(PID.TID 0000.0001) // =======================================================
 cg2d: Sum(rhs),rhsMax =  -2.80794779573491E+00  2.86583706110113E-03
 cg2d: Sum(rhs),rhsMax =  -3.09076538041153E+00  2.94225354196764E-03
 cg2d: Sum(rhs),rhsMax =  -3.17911023925373E+00  2.98708407054008E-03
 cg2d: Sum(rhs),rhsMax =  -3.06968980756688E+00  2.99369701908631E-03
 cg2d: Sum(rhs),rhsMax =  -2.74200030638394E+00  3.00868116540027E-03
 cg2d: Sum(rhs),rhsMax =  -2.22987018400990E+00  3.08320497040958E-03
 cg2d: Sum(rhs),rhsMax =  -1.72892384261759E+00  3.09216603140175E-03
 cg2d: Sum(rhs),rhsMax =  -1.30661126211173E+00  3.03707924765661E-03
 cg2d: Sum(rhs),rhsMax =  -1.02724587665604E+00  2.93201255430208E-03
 cg2d: Sum(rhs),rhsMax =  -9.49612083397624E-01  2.80059569221645E-03
 cg2d: Sum(rhs),rhsMax =  -1.10546681688730E+00  2.68802011902948E-03
 cg2d: Sum(rhs),rhsMax =  -1.41911846031720E+00  2.73183503865475E-03
(PID.TID 0000.0001)                    cg2d_init_res =    1.57477350793971E-01
(PID.TID 0000.0001)                       cg2d_iters =    14
(PID.TID 0000.0001)                         cg2d_res =    3.98037203166659E-15
(PID.TID 0000.0001) // =======================================================
(PID.TID 0000.0001) // Begin MONITOR dynamic field statistics
(PID.TID 0000.0001) // =======================================================
(PID.TID 0000.0001) %MON time_tsnumber                =                    72
(PID.TID 0000.0001) %MON time_secondsf                =   2.5920000000000E+05
(PID.TID 0000.0001) %MON dynstat_eta_max              =   3.7377077836293E-04
(PID.TID 0000.0001) %MON dynstat_eta_min              =   1.3435108009900E-04
(PID.TID 0000.0001) %MON dynstat_eta_mean             =   2.5121648019648E-04
(PID.TID 0000.0001) %MON dynstat_eta_sd               =   7.5910019577097E-05
(PID.TID 0000.0001) %MON dynstat_eta_del2             =   2.5786806170968E-05
(PID.TID 0000.0001) %MON dynstat_uvel_max             =   2.0066301964522E-03
(PID.TID 0000.0001) %MON dynstat_uvel_min             =  -1.3628870188011E-04
(PID.TID 0000.0001) %MON dynstat_uvel_mean            =   8.8354210865248E-05
(PID.TID 0000.0001) %MON dynstat_uvel_sd              =   2.9275992474829E-04
(PID.TID 0000.0001) %MON dynstat_uvel_del2            =   3.6664939201502E-05
(PID.TID 0000.0001) %MON dynstat_vvel_max             =   8.6949164248194E-03
(PID.TID 0000.0001) %MON dynstat_vvel_min             =  -5.1198133241082E-04
(PID.TID 0000.0001) %MON dynstat_vvel_mean            =   1.2475387629289E-04
(PID.TID 0000.0001) %MON dynstat_vvel_sd              =   1.1880617020090E-03
(PID.TID 0000.0001) %MON dynstat_vvel_del2            =   8.3685473824739E-05
(PID.TID 0000.0001) %MON dynstat_wvel_max             =   7.2125205216692E-07
(PID.TID 0000.0001) %MON dynstat_wvel_min             =  -6.2121320296666E-07
(PID.TID 0000.0001) %MON dynstat_wvel_mean            =  -2.7399198787951E-10
(PID.TID 0000.0001) %MON dynstat_wvel_sd              =   4.5989094488568E-07
(PID.TID 0000.0001) %MON dynstat_wvel_del2            =   1.3861434996455E-07
(PID.TID 0000.0001) %MON dynstat_theta_max            =   4.0000000000000E+00
(PID.TID 0000.0001) %MON dynstat_theta_min            =   4.0000000000000E+00
(PID.TID 0000.0001) %MON dynstat_theta_mean           =   4.0000000000000E+00
(PID.TID 0000.0001) %MON dynstat_theta_sd             =   0.0000000000000E+00
(PID.TID 0000.0001) %MON dynstat_theta_del2           =   0.0000000000000E+00
(PID.TID 0000.0001) %MON dynstat_salt_max             =   3.5000000000000E+01
(PID.TID 0000.0001) %MON dynstat_salt_min             =   3.5000000000000E+01
(PID.TID 0000.0001) %MON dynstat_salt_mean            =   3.5000000000000E+01
(PID.TID 0000.0001) %MON dynstat_salt_sd              =   0.0000000000000E+00
(PID.TID 0000.0001) %MON dynstat_salt_del2            =   0.0000000000000E+00
(PID.TID 0000.0001) %MON advcfl_uvel_max              =   3.6119343536140E-05
(PID.TID 0000.0001) %MON advcfl_vvel_max              =   1.5650849564675E-04
(PID.TID 0000.0001) %MON advcfl_wvel_max              =   9.8721178438354E-06
(PID.TID 0000.0001) %MON advcfl_W_hf_max              =   2.4680294609589E-05
(PID.TID 0000.0001) %MON pe_b_mean                    =   7.6760707356841E-11
(PID.TID 0000.0001) %MON ke_max                       =   3.5945766562656E-05
(PID.TID 0000.0001) %MON ke_mean                      =   7.6028448877342E-07
(PID.TID 0000.0001) %MON ke_vol                       =   4.4009158039362E+15
(PID.TID 0000.0001) // =======================================================
(PID.TID 0000.0001) // End MONITOR dynamic field statistics
(PID.TID 0000.0001) // =======================================================
 cg2d: Sum(rhs),rhsMax =  -1.85263652552161E+00  2.80075124009609E-03
 cg2d: Sum(rhs),rhsMax =  -2.30607105577749E+00  2.88121984326696E-03
 cg2d: Sum(rhs),rhsMax =  -2.69038333389278E+00  2.95745898573299E-03
 cg2d: Sum(rhs),rhsMax =  -2.94313285401590E+00  3.01465309603795E-03
 cg2d: Sum(rhs),rhsMax =  -3.03123924248607E+00  3.04190025811535E-03
 cg2d: Sum(rhs),rhsMax =  -2.94785322566268E+00  3.03433140059539E-03
 cg2d: Sum(rhs),rhsMax =  -2.61356655263096E+00  3.10365978565921E-03
 cg2d: Sum(rhs),rhsMax =  -2.18161317311327E+00  3.16115505489442E-03
 cg2d: Sum(rhs),rhsMax =  -1.75526123517841E+00  3.15966313972239E-03
 cg2d: Sum(rhs),rhsMax =  -1.39603742971207E+00  3.10114912749771E-03
 cg2d: Sum(rhs),rhsMax =  -1.16177139472085E+00  2.99876546018411E-03
 cg2d: Sum(rhs),rhsMax =  -1.10293746482228E+00  2.87411083831753E-03
(PID.TID 0000.0001)                    cg2d_init_res =    1.05337918151204E-01
(PID.TID 0000.0001)                       cg2d_iters =    14
(PID.TID 0000.0001)                         cg2d_res =    4.09162691712672E-14
(PID.TID 0000.0001) // =======================================================
(PID.TID 0000.0001) // Begin MONITOR dynamic field statistics
(PID.TID 0000.0001) // =======================================================
(PID.TID 0000.0001) %MON time_tsnumber                =                    84
(PID.TID 0000.0001) %MON time_secondsf                =   3.0240000000000E+05
(PID.TID 0000.0001) %MON dynstat_eta_max              =   3.3692566886073E-04
(PID.TID 0000.0001) %MON dynstat_eta_min              =   7.3980548589552E-05
(PID.TID 0000.0001) %MON dynstat_eta_mean             =   2.0541370100176E-04
(PID.TID 0000.0001) %MON dynstat_eta_sd               =   8.2740068428321E-05
(PID.TID 0000.0001) %MON dynstat_eta_del2             =   2.7676926391985E-05
(PID.TID 0000.0001) %MON dynstat_uvel_max             =   6.8665943414566E-04
(PID.TID 0000.0001) %MON dynstat_uvel_min             =  -1.4052038712851E-04
(PID.TID 0000.0001) %MON dynstat_uvel_mean            =  -3.9275665296779E-06
(PID.TID 0000.0001) %MON dynstat_uvel_sd              =   9.2430013947490E-05
(PID.TID 0000.0001) %MON dynstat_uvel_del2            =   3.7219970452911E-05
(PID.TID 0000.0001) %MON dynstat_vvel_max             =   8.6148358150846E-03
(PID.TID 0000.0001) %MON dynstat_vvel_min             =  -8.6022287513478E-04
(PID.TID 0000.0001) %MON dynstat_vvel_mean            =   9.7053487927684E-05
(PID.TID 0000.0001) %MON dynstat_vvel_sd              =   1.1575210370247E-03
(PID.TID 0000.0001) %MON dynstat_vvel_del2            =   8.8072918525907E-05
(PID.TID 0000.0001) %MON dynstat_wvel_max             =   9.1643140674302E-07
(PID.TID 0000.0001) %MON dynstat_wvel_min             =  -9.4775690096948E-07
(PID.TID 0000.0001) %MON dynstat_wvel_mean            =  -2.5843872404122E-09
(PID.TID 0000.0001) %MON dynstat_wvel_sd              =   6.1943122380693E-07
(PID.TID 0000.0001) %MON dynstat_wvel_del2            =   1.4502731368640E-07
(PID.TID 0000.0001) %MON dynstat_theta_max            =   4.0000000000000E+00
(PID.TID 0000.0001) %MON dynstat_theta_min            =   4.0000000000000E+00
(PID.TID 0000.0001) %MON dynstat_theta_mean           =   4.0000000000000E+00
(PID.TID 0000.0001) %MON dynstat_theta_sd             =   0.0000000000000E+00
(PID.TID 0000.0001) %MON dynstat_theta_del2           =   0.0000000000000E+00
(PID.TID 0000.0001) %MON dynstat_salt_max             =   3.5000000000000E+01
(PID.TID 0000.0001) %MON dynstat_salt_min             =   3.5000000000000E+01
(PID.TID 0000.0001) %MON dynstat_salt_mean            =   3.5000000000000E+01
(PID.TID 0000.0001) %MON dynstat_salt_sd              =   0.0000000000000E+00
(PID.TID 0000.0001) %MON dynstat_salt_del2            =   0.0000000000000E+00
(PID.TID 0000.0001) %MON advcfl_uvel_max              =   1.2359869814622E-05
(PID.TID 0000.0001) %MON advcfl_vvel_max              =   1.5506704467152E-04
(PID.TID 0000.0001) %MON advcfl_wvel_max              =   1.1287289517200E-05
(PID.TID 0000.0001) %MON advcfl_W_hf_max              =   2.6885972686919E-05
(PID.TID 0000.0001) %MON pe_b_mean                    =   5.4657866889392E-11
(PID.TID 0000.0001) %MON ke_max                       =   3.2734108642380E-05
(PID.TID 0000.0001) %MON ke_mean                      =   6.7891653196537E-07
(PID.TID 0000.0001) %MON ke_vol                       =   4.4009158039362E+15
(PID.TID 0000.0001) // =======================================================
(PID.TID 0000.0001) // End MONITOR dynamic field statistics
(PID.TID 0000.0001) // =======================================================
 cg2d: Sum(rhs),rhsMax =  -1.24975133363537E+00  2.75286355082885E-03
 cg2d: Sum(rhs),rhsMax =  -1.53840868920596E+00  2.75098215542079E-03
 cg2d: Sum(rhs),rhsMax =  -1.91301872651505E+00  2.81271668012766E-03
 cg2d: Sum(rhs),rhsMax =  -2.30705941137190E+00  2.88449380033005E-03
 cg2d: Sum(rhs),rhsMax =  -2.64297554250683E+00  2.95188724418166E-03
 cg2d: Sum(rhs),rhsMax =  -2.86495130756361E+00  3.00154117451828E-03
 cg2d: Sum(rhs),rhsMax =  -2.94238810044246E+00  3.02377925014884E-03
 cg2d: Sum(rhs),rhsMax =  -2.84207312153519E+00  3.04217207355400E-03
 cg2d: Sum(rhs),rhsMax =  -2.51902174703891E+00  3.13830805734545E-03
 cg2d: Sum(rhs),rhsMax =  -2.14123729035315E+00  3.18959324319447E-03
 cg2d: Sum(rhs),rhsMax =  -1.76835917692967E+00  3.18714933359252E-03
 cg2d: Sum(rhs),rhsMax =  -1.45590348225905E+00  3.13272230350791E-03
(PID.TID 0000.0001)                    cg2d_init_res =    7.71253611967993E-02
(PID.TID 0000.0001)                       cg2d_iters =    14
(PID.TID 0000.0001)                         cg2d_res =    6.10706943004413E-14
(PID.TID 0000.0001) // =======================================================
(PID.TID 0000.0001) // Begin MONITOR dynamic field statistics
(PID.TID 0000.0001) // =======================================================
(PID.TID 0000.0001) %MON time_tsnumber                =                    96
(PID.TID 0000.0001) %MON time_secondsf                =   3.4560000000000E+05
(PID.TID 0000.0001) %MON dynstat_eta_max              =   4.3540139047003E-04
(PID.TID 0000.0001) %MON dynstat_eta_min              =   1.5177995273532E-04
(PID.TID 0000.0001) %MON dynstat_eta_mean             =   2.9554899692868E-04
(PID.TID 0000.0001) %MON dynstat_eta_sd               =   8.7582153729850E-05
(PID.TID 0000.0001) %MON dynstat_eta_del2             =   2.8748881725199E-05
(PID.TID 0000.0001) %MON dynstat_uvel_max             =   1.0547673190852E-04
(PID.TID 0000.0001) %MON dynstat_uvel_min             =  -1.0166241929416E-03
(PID.TID 0000.0001) %MON dynstat_uvel_mean            =  -7.4708936166461E-05
(PID.TID 0000.0001) %MON dynstat_uvel_sd              =   1.8260190025298E-04
(PID.TID 0000.0001) %MON dynstat_uvel_del2            =   4.4341514805118E-05
(PID.TID 0000.0001) %MON dynstat_vvel_max             =   9.1004496269361E-03
(PID.TID 0000.0001) %MON dynstat_vvel_min             =  -5.5615174574910E-04
(PID.TID 0000.0001) %MON dynstat_vvel_mean            =   1.4635828282634E-04
(PID.TID 0000.0001) %MON dynstat_vvel_sd              =   1.2316145137127E-03
(PID.TID 0000.0001) %MON dynstat_vvel_del2            =   8.3381871515712E-05
(PID.TID 0000.0001) %MON dynstat_wvel_max             =   8.6771950095179E-07
(PID.TID 0000.0001) %MON dynstat_wvel_min             =  -7.3379675236532E-07
(PID.TID 0000.0001) %MON dynstat_wvel_mean            =  -2.2853756596266E-09
(PID.TID 0000.0001) %MON dynstat_wvel_sd              =   5.1863476637447E-07
(PID.TID 0000.0001) %MON dynstat_wvel_del2            =   1.3118872263334E-07
(PID.TID 0000.0001) %MON dynstat_theta_max            =   4.0000000000000E+00
(PID.TID 0000.0001) %MON dynstat_theta_min            =   4.0000000000000E+00
(PID.TID 0000.0001) %MON dynstat_theta_mean           =   4.0000000000000E+00
(PID.TID 0000.0001) %MON dynstat_theta_sd             =   0.0000000000000E+00
(PID.TID 0000.0001) %MON dynstat_theta_del2           =   0.0000000000000E+00
(PID.TID 0000.0001) %MON dynstat_salt_max             =   3.5000000000000E+01
(PID.TID 0000.0001) %MON dynstat_salt_min             =   3.5000000000000E+01
(PID.TID 0000.0001) %MON dynstat_salt_mean            =   3.5000000000000E+01
(PID.TID 0000.0001) %MON dynstat_salt_sd              =   0.0000000000000E+00
(PID.TID 0000.0001) %MON dynstat_salt_del2            =   0.0000000000000E+00
(PID.TID 0000.0001) %MON advcfl_uvel_max              =   1.8299235472948E-05
(PID.TID 0000.0001) %MON advcfl_vvel_max              =   1.6380809328485E-04
(PID.TID 0000.0001) %MON advcfl_wvel_max              =   1.1491019749850E-05
(PID.TID 0000.0001) %MON advcfl_W_hf_max              =   2.5123399139359E-05
(PID.TID 0000.0001) %MON pe_b_mean                    =   1.0590348732941E-10
(PID.TID 0000.0001) %MON ke_max                       =   3.7093135033999E-05
(PID.TID 0000.0001) %MON ke_mean                      =   7.8860996822940E-07
(PID.TID 0000.0001) %MON ke_vol                       =   4.4009158039362E+15
(PID.TID 0000.0001) // =======================================================
(PID.TID 0000.0001) // End MONITOR dynamic field statistics
(PID.TID 0000.0001) // =======================================================
 cg2d: Sum(rhs),rhsMax =  -1.25508069255512E+00  3.03818418537008E-03
 cg2d: Sum(rhs),rhsMax =  -1.20874902175853E+00  2.92305993444265E-03
 cg2d: Sum(rhs),rhsMax =  -1.34034308737630E+00  2.81059307777595E-03
 cg2d: Sum(rhs),rhsMax =  -1.62624329945784E+00  2.74190571580756E-03
(PID.TID 0000.0001) %CHECKPOINT       100 ckptA
 --> objf_test(bi,bj)   =  0.509071982061511D-01
 --> objf_tracer(bi,bj) =  0.000000000000000D+00
 --> objf_atl(bi,bj)    =  0.000000000000000D+00
  local fc =  0.509071982061511D-01
 global fc =  0.509071982061511D-01
(PID.TID 0000.0001) SOLVE_FOR_PRESSURE: putPmEinXvector =    F
 cg2d: Sum(rhs),rhsMax =   0.00000000000000E+00  0.00000000000000E+00
 cg2d: Sum(rhs),rhsMax =  -2.49999999999995E+01  6.03492218443701E-05
 cg2d: Sum(rhs),rhsMax =  -1.81034404639062E+01  2.18766023587219E-04
 cg2d: Sum(rhs),rhsMax =  -1.54955562832147E+01  4.32479836297448E-04
 cg2d: Sum(rhs),rhsMax =  -1.41111452329495E+01  6.49958988323421E-04
 cg2d: Sum(rhs),rhsMax =  -1.31144322332612E+01  8.30737102828389E-04
 cg2d: Sum(rhs),rhsMax =  -1.21209090325388E+01  9.52510661965289E-04
 cg2d: Sum(rhs),rhsMax =  -1.07124742372069E+01  1.02806631163207E-03
 cg2d: Sum(rhs),rhsMax =  -7.41375936665709E+00  1.27086596334072E-03
 cg2d: Sum(rhs),rhsMax =  -4.70217533455405E+00  1.51019014093810E-03
 cg2d: Sum(rhs),rhsMax =  -2.72440685927924E+00  1.65833738310011E-03
 cg2d: Sum(rhs),rhsMax =  -1.27958669047308E+00  1.70565508827135E-03
 cg2d: Sum(rhs),rhsMax =  -3.29564699152565E-01  1.66071960615390E-03
 cg2d: Sum(rhs),rhsMax =   5.21320406653943E-02  1.54812756163632E-03
 cg2d: Sum(rhs),rhsMax =  -2.86625374400561E-01  1.40338816101555E-03
 cg2d: Sum(rhs),rhsMax =  -1.30315843370187E+00  1.44268599687868E-03
 cg2d: Sum(rhs),rhsMax =  -2.68067690299426E+00  1.50836886631255E-03
 cg2d: Sum(rhs),rhsMax =  -4.07407453351544E+00  1.58424366916569E-03
 cg2d: Sum(rhs),rhsMax =  -5.18272347948933E+00  1.66593592879081E-03
 cg2d: Sum(rhs),rhsMax =  -5.80990598228075E+00  1.74846175380778E-03
 cg2d: Sum(rhs),rhsMax =  -5.87740627497562E+00  1.82725971218559E-03
 cg2d: Sum(rhs),rhsMax =  -5.41358311299291E+00  1.89900434709078E-03
 cg2d: Sum(rhs),rhsMax =  -4.53080676713558E+00  1.96213934573591E-03
 cg2d: Sum(rhs),rhsMax =  -3.22587898908490E+00  2.12611202720459E-03
 cg2d: Sum(rhs),rhsMax =  -2.04447211883242E+00  2.24837953875887E-03
 cg2d: Sum(rhs),rhsMax =  -1.10818137305929E+00  2.30404049287479E-03
 cg2d: Sum(rhs),rhsMax =  -4.90484880946382E-01  2.29576532537697E-03
 cg2d: Sum(rhs),rhsMax =  -2.61247064583523E-01  2.23814842293959E-03
 cg2d: Sum(rhs),rhsMax =  -4.50921969321612E-01  2.26266907028511E-03
 cg2d: Sum(rhs),rhsMax =  -1.00469610672039E+00  2.31946123117386E-03
 cg2d: Sum(rhs),rhsMax =  -1.78565331428761E+00  2.37599941654387E-03
 cg2d: Sum(rhs),rhsMax =  -2.62429308819162E+00  2.42805543472492E-03
 cg2d: Sum(rhs),rhsMax =  -3.35748486680844E+00  2.47123045079746E-03
 cg2d: Sum(rhs),rhsMax =  -3.85508917834432E+00  2.50195598359617E-03
 cg2d: Sum(rhs),rhsMax =  -4.03589978211305E+00  2.51830322545866E-03
 cg2d: Sum(rhs),rhsMax =  -3.87512848171552E+00  2.52047519086831E-03
 cg2d: Sum(rhs),rhsMax =  -3.40600368805607E+00  2.51092921751125E-03
 cg2d: Sum(rhs),rhsMax =  -2.61682443313498E+00  2.58874087416429E-03
 cg2d: Sum(rhs),rhsMax =  -1.83238712200575E+00  2.61669730048879E-03
 cg2d: Sum(rhs),rhsMax =  -1.17513338209913E+00  2.56005946296687E-03
 cg2d: Sum(rhs),rhsMax =  -7.11994618995474E-01  2.47855830238831E-03
 cg2d: Sum(rhs),rhsMax =  -5.26422152819522E-01  2.47042092565892E-03
 cg2d: Sum(rhs),rhsMax =  -6.78930216954530E-01  2.49676870345940E-03
 cg2d: Sum(rhs),rhsMax =  -1.12673722382142E+00  2.53652611463688E-03
 cg2d: Sum(rhs),rhsMax =  -1.75981625889752E+00  2.58504763845509E-03
 cg2d: Sum(rhs),rhsMax =  -2.43940636469674E+00  2.63568090232622E-03
 cg2d: Sum(rhs),rhsMax =  -3.03203010255973E+00  2.68092813759028E-03
 cg2d: Sum(rhs),rhsMax =  -3.40991311853902E+00  2.73286304448481E-03
 cg2d: Sum(rhs),rhsMax =  -3.48046023235821E+00  2.80943922930574E-03
 cg2d: Sum(rhs),rhsMax =  -3.32063073087977E+00  2.84054009236554E-03
 cg2d: Sum(rhs),rhsMax =  -2.96079447598364E+00  2.82589058192359E-03
 cg2d: Sum(rhs),rhsMax =  -2.32992811105154E+00  2.92147975447444E-03
 cg2d: Sum(rhs),rhsMax =  -1.72242456195876E+00  2.94384963610315E-03
 cg2d: Sum(rhs),rhsMax =  -1.21221903664759E+00  2.89157780595211E-03
 cg2d: Sum(rhs),rhsMax =  -8.69698394722568E-01  2.78046458206127E-03
 cg2d: Sum(rhs),rhsMax =  -7.64867805246307E-01  2.63730950806146E-03
 cg2d: Sum(rhs),rhsMax =  -9.31747849420197E-01  2.54529703304593E-03
 cg2d: Sum(rhs),rhsMax =  -1.31074338891574E+00  2.59464768533879E-03
 cg2d: Sum(rhs),rhsMax =  -1.82960843215049E+00  2.67470088166808E-03
 cg2d: Sum(rhs),rhsMax =  -2.36415409295813E+00  2.77096212192831E-03
 cg2d: Sum(rhs),rhsMax =  -2.80794779573491E+00  2.86583706110113E-03
 cg2d: Sum(rhs),rhsMax =  -3.09076538041153E+00  2.94225354196764E-03
 cg2d: Sum(rhs),rhsMax =  -3.17911023925373E+00  2.98708407054008E-03
 cg2d: Sum(rhs),rhsMax =  -3.06968980756688E+00  2.99369701908631E-03
 cg2d: Sum(rhs),rhsMax =  -2.74200030638394E+00  3.00868116540027E-03
 cg2d: Sum(rhs),rhsMax =  -2.22987018400990E+00  3.08320497040958E-03
 cg2d: Sum(rhs),rhsMax =  -1.72892384261759E+00  3.09216603140175E-03
 cg2d: Sum(rhs),rhsMax =  -1.30661126211173E+00  3.03707924765661E-03
 cg2d: Sum(rhs),rhsMax =  -1.02724587665604E+00  2.93201255430208E-03
 cg2d: Sum(rhs),rhsMax =  -9.49612083397624E-01  2.80059569221645E-03
 cg2d: Sum(rhs),rhsMax =  -1.10546681688730E+00  2.68802011902948E-03
 cg2d: Sum(rhs),rhsMax =  -1.41911846031720E+00  2.73183503865475E-03
 cg2d: Sum(rhs),rhsMax =  -1.85263652552161E+00  2.80075124009609E-03
 cg2d: Sum(rhs),rhsMax =  -2.30607105577749E+00  2.88121984326696E-03
 cg2d: Sum(rhs),rhsMax =  -2.69038333389278E+00  2.95745898573299E-03
 cg2d: Sum(rhs),rhsMax =  -2.94313285401590E+00  3.01465309603795E-03
 cg2d: Sum(rhs),rhsMax =  -3.03123924248607E+00  3.04190025811535E-03
 cg2d: Sum(rhs),rhsMax =  -2.94785322566268E+00  3.03433140059539E-03
 cg2d: Sum(rhs),rhsMax =  -2.61356655263096E+00  3.10365978565921E-03
 cg2d: Sum(rhs),rhsMax =  -2.18161317311327E+00  3.16115505489442E-03
 cg2d: Sum(rhs),rhsMax =  -1.75526123517841E+00  3.15966313972239E-03
 cg2d: Sum(rhs),rhsMax =  -1.39603742971207E+00  3.10114912749771E-03
 cg2d: Sum(rhs),rhsMax =  -1.16177139472085E+00  2.99876546018411E-03
 cg2d: Sum(rhs),rhsMax =  -1.10293746482228E+00  2.87411083831753E-03
 cg2d: Sum(rhs),rhsMax =  -1.24975133363537E+00  2.75286355082885E-03
 cg2d: Sum(rhs),rhsMax =  -1.53840868920596E+00  2.75098215542079E-03
 cg2d: Sum(rhs),rhsMax =  -1.91301872651505E+00  2.81271668012766E-03
 cg2d: Sum(rhs),rhsMax =  -2.30705941137190E+00  2.88449380033005E-03
 cg2d: Sum(rhs),rhsMax =  -2.64297554250683E+00  2.95188724418166E-03
 cg2d: Sum(rhs),rhsMax =  -2.86495130756361E+00  3.00154117451828E-03
 cg2d: Sum(rhs),rhsMax =  -2.94238810044246E+00  3.02377925014884E-03
 cg2d: Sum(rhs),rhsMax =  -2.84207312153519E+00  3.04217207355400E-03
 cg2d: Sum(rhs),rhsMax =  -2.51902174703891E+00  3.13830805734545E-03
 cg2d: Sum(rhs),rhsMax =  -2.14123729035315E+00  3.18959324319447E-03
 cg2d: Sum(rhs),rhsMax =  -1.76835917692967E+00  3.18714933359252E-03
 cg2d: Sum(rhs),rhsMax =  -1.45590348225905E+00  3.13272230350791E-03
 cg2d: Sum(rhs),rhsMax =  -1.25508069255512E+00  3.03818418537008E-03
 cg2d: Sum(rhs),rhsMax =  -1.20874902175853E+00  2.92305993444265E-03
 cg2d: Sum(rhs),rhsMax =  -1.34034308737630E+00  2.81059307777595E-03
 cg2d: Sum(rhs),rhsMax =  -1.62624329945784E+00  2.74190571580756E-03
(PID.TID 0000.0001) Did not write pickup because writePickupAtEnd = FALSE
(PID.TID 0000.0001) Did not write pickup because writePickupAtEnd = FALSE
(PID.TID 0000.0001) Did not write pickup because writePickupAtEnd = FALSE
                     ctrl_depth_ini: ctrl update R_low,
                                     adding the control vector.
(PID.TID 0000.0001) Start initial hydrostatic pressure computation
(PID.TID 0000.0001) Pressure is predetermined for buoyancyRelation OCEANIC
(PID.TID 0000.0001) 
 ph-pack: packing ecco_cost
 ph-pack: packing ecco_ctrl
 ph-check entering grdchk_main 
 ph-check fcref =   5.09071982061511247E-002
grad-res -------------------------------
 grad-res  proc    #    i    j    k   bi   bj iobc               fc ref           fc + eps           fc - eps
 grad-res  proc    #    i    j    k   bi   bj iobc             adj grad            fd grad         1 - fd/adj
 ph-test icomp, ncvarcomp, ichknum            1          25           1
 ph-grd _loc: bi, bj, icomptest, ichknum            1           1           0           1
 ph-grd -->hit<--            1           1           1           1
(PID.TID 0000.0001) INI_CG2D: CG2D normalisation factor =  1.9999999999999996E-04
(PID.TID 0000.0001) 
                     ctrl_depth_ini: ctrl update R_low,
                                     adding the control vector.
(PID.TID 0000.0001) Start initial hydrostatic pressure computation
(PID.TID 0000.0001) Pressure is predetermined for buoyancyRelation OCEANIC
(PID.TID 0000.0001) 
(PID.TID 0000.0001) // =======================================================
(PID.TID 0000.0001) // Model current state
(PID.TID 0000.0001) // =======================================================
(PID.TID 0000.0001) 
(PID.TID 0000.0001) SOLVE_FOR_PRESSURE: putPmEinXvector =    F
 cg2d: Sum(rhs),rhsMax =   0.00000000000000E+00  0.00000000000000E+00
 cg2d: Sum(rhs),rhsMax =  -2.49999999999995E+01  6.03492218443701E-05
 cg2d: Sum(rhs),rhsMax =  -1.81034404639062E+01  2.18766023587219E-04
 cg2d: Sum(rhs),rhsMax =  -1.54955563053272E+01  4.32479835680203E-04
 cg2d: Sum(rhs),rhsMax =  -1.41111452562854E+01  6.49958987247196E-04
 cg2d: Sum(rhs),rhsMax =  -1.31144322506232E+01  8.30737101724772E-04
 cg2d: Sum(rhs),rhsMax =  -1.21209090397491E+01  9.52510661391563E-04
 cg2d: Sum(rhs),rhsMax =  -1.07124742363595E+01  1.02806631170214E-03
 cg2d: Sum(rhs),rhsMax =  -7.41375936832816E+00  1.27086596303475E-03
 cg2d: Sum(rhs),rhsMax =  -4.70217533515014E+00  1.51019014071475E-03
 cg2d: Sum(rhs),rhsMax =  -2.72440685909780E+00  1.65833738316241E-03
 cg2d: Sum(rhs),rhsMax =  -1.27958668997904E+00  1.70565508886198E-03
 cg2d: Sum(rhs),rhsMax =  -3.29564698869119E-01  1.66071960751689E-03
 cg2d: Sum(rhs),rhsMax =   5.21320405510887E-02  1.54812756397473E-03
 cg2d: Sum(rhs),rhsMax =  -2.86625373789545E-01  1.40338816445427E-03
 cg2d: Sum(rhs),rhsMax =  -1.30315843448690E+00  1.44268599614768E-03
 cg2d: Sum(rhs),rhsMax =  -2.68067690527126E+00  1.50836886510308E-03
 cg2d: Sum(rhs),rhsMax =  -4.07407453789155E+00  1.58424366750066E-03
 cg2d: Sum(rhs),rhsMax =  -5.18272348585382E+00  1.66593592675274E-03
 cg2d: Sum(rhs),rhsMax =  -5.80990598978349E+00  1.74846175152579E-03
 cg2d: Sum(rhs),rhsMax =  -5.87740628239590E+00  1.82725970981272E-03
 cg2d: Sum(rhs),rhsMax =  -5.41358311922757E+00  1.89900434477566E-03
 cg2d: Sum(rhs),rhsMax =  -4.53080677154882E+00  1.96213934359428E-03
 cg2d: Sum(rhs),rhsMax =  -3.22587897556235E+00  2.12611203567566E-03
 cg2d: Sum(rhs),rhsMax =  -2.04447210973963E+00  2.24837954786822E-03
 cg2d: Sum(rhs),rhsMax =  -1.10818136723709E+00  2.30404050297156E-03
 cg2d: Sum(rhs),rhsMax =  -4.90484877350058E-01  2.29576533682777E-03
 cg2d: Sum(rhs),rhsMax =  -2.61247061678084E-01  2.23814843607113E-03
 cg2d: Sum(rhs),rhsMax =  -4.50921968156759E-01  2.26266906827965E-03
 cg2d: Sum(rhs),rhsMax =  -1.00469610603889E+00  2.31946122869945E-03
 cg2d: Sum(rhs),rhsMax =  -1.78565331459878E+00  2.37599941350944E-03
 cg2d: Sum(rhs),rhsMax =  -2.62429308987654E+00  2.42805543110743E-03
 cg2d: Sum(rhs),rhsMax =  -3.35748486991849E+00  2.47123044664492E-03
 cg2d: Sum(rhs),rhsMax =  -3.85508918249999E+00  2.50195597901767E-03
 cg2d: Sum(rhs),rhsMax =  -4.03589978656050E+00  2.51830322060374E-03
 cg2d: Sum(rhs),rhsMax =  -3.87512848551857E+00  2.52047518589939E-03
 cg2d: Sum(rhs),rhsMax =  -3.40600369034580E+00  2.51092921257506E-03
 cg2d: Sum(rhs),rhsMax =  -2.61682442423893E+00  2.58874087816787E-03
 cg2d: Sum(rhs),rhsMax =  -1.83238711380677E+00  2.61669730449345E-03
 cg2d: Sum(rhs),rhsMax =  -1.17513337426491E+00  2.56005946664408E-03
 cg2d: Sum(rhs),rhsMax =  -7.11994603006380E-01  2.47855833361189E-03
 cg2d: Sum(rhs),rhsMax =  -5.26422146000889E-01  2.47042092135890E-03
 cg2d: Sum(rhs),rhsMax =  -6.78930209790172E-01  2.49676869905945E-03
 cg2d: Sum(rhs),rhsMax =  -1.12673721690943E+00  2.53652611003383E-03
 cg2d: Sum(rhs),rhsMax =  -1.75981625267600E+00  2.58504763357739E-03
 cg2d: Sum(rhs),rhsMax =  -2.43940635934217E+00  2.63568089714716E-03
 cg2d: Sum(rhs),rhsMax =  -3.03203009792250E+00  2.68092813213142E-03
 cg2d: Sum(rhs),rhsMax =  -3.40991318113150E+00  2.73286298511367E-03
 cg2d: Sum(rhs),rhsMax =  -3.48046029579082E+00  2.80943916833855E-03
 cg2d: Sum(rhs),rhsMax =  -3.32063079186187E+00  2.84054002913352E-03
 cg2d: Sum(rhs),rhsMax =  -2.96079453116882E+00  2.82589051585430E-03
 cg2d: Sum(rhs),rhsMax =  -2.32992809406442E+00  2.92147975743620E-03
 cg2d: Sum(rhs),rhsMax =  -1.72242454477322E+00  2.94384963883220E-03
 cg2d: Sum(rhs),rhsMax =  -1.21221901874160E+00  2.89157780812863E-03
 cg2d: Sum(rhs),rhsMax =  -8.69698375425731E-01  2.78046458344596E-03
 cg2d: Sum(rhs),rhsMax =  -7.64867783942684E-01  2.63730950854065E-03
 cg2d: Sum(rhs),rhsMax =  -9.31747856150203E-01  2.54529695107745E-03
 cg2d: Sum(rhs),rhsMax =  -1.31074340671606E+00  2.59464760223540E-03
 cg2d: Sum(rhs),rhsMax =  -1.82960846482971E+00  2.67470079764046E-03
 cg2d: Sum(rhs),rhsMax =  -2.36415414020603E+00  2.77096203692712E-03
 cg2d: Sum(rhs),rhsMax =  -2.80794785448627E+00  2.86583697483013E-03
 cg2d: Sum(rhs),rhsMax =  -3.09076544640775E+00  2.94225345395067E-03
 cg2d: Sum(rhs),rhsMax =  -3.17911030791856E+00  2.98708398022702E-03
 cg2d: Sum(rhs),rhsMax =  -3.06968987421375E+00  2.99369692597479E-03
 cg2d: Sum(rhs),rhsMax =  -2.74200027692962E+00  3.00868116462950E-03
 cg2d: Sum(rhs),rhsMax =  -2.22987015384487E+00  3.08320496939328E-03
 cg2d: Sum(rhs),rhsMax =  -1.72892381118368E+00  3.09216602984356E-03
 cg2d: Sum(rhs),rhsMax =  -1.30661122869232E+00  3.03707924530390E-03
 cg2d: Sum(rhs),rhsMax =  -1.02724584054028E+00  2.93201255099673E-03
 cg2d: Sum(rhs),rhsMax =  -9.49612044136589E-01  2.80059568792459E-03
 cg2d: Sum(rhs),rhsMax =  -1.10546681800597E+00  2.68802000884375E-03
 cg2d: Sum(rhs),rhsMax =  -1.41911847273231E+00  2.73183492765420E-03
 cg2d: Sum(rhs),rhsMax =  -1.85263655359334E+00  2.80075112831436E-03
 cg2d: Sum(rhs),rhsMax =  -2.30607109976242E+00  2.88121973046193E-03
 cg2d: Sum(rhs),rhsMax =  -2.69038339106492E+00  2.95745887142924E-03
 cg2d: Sum(rhs),rhsMax =  -2.94313292004929E+00  3.01465297961794E-03
 cg2d: Sum(rhs),rhsMax =  -3.03123931232154E+00  3.04190013894104E-03
 cg2d: Sum(rhs),rhsMax =  -2.94785329383006E+00  3.03433127813547E-03
 cg2d: Sum(rhs),rhsMax =  -2.61356650711809E+00  3.10365977865344E-03
 cg2d: Sum(rhs),rhsMax =  -2.18161312623216E+00  3.16115504717870E-03
 cg2d: Sum(rhs),rhsMax =  -1.75526118604589E+00  3.15966313102078E-03
 cg2d: Sum(rhs),rhsMax =  -1.39603737741015E+00  3.10114911761468E-03
 cg2d: Sum(rhs),rhsMax =  -1.16177133853031E+00  2.99876544904511E-03
 cg2d: Sum(rhs),rhsMax =  -1.10293740454135E+00  2.87411082598448E-03
 cg2d: Sum(rhs),rhsMax =  -1.24975126986097E+00  2.75286353748707E-03
 cg2d: Sum(rhs),rhsMax =  -1.53840869665204E+00  2.75098201366444E-03
 cg2d: Sum(rhs),rhsMax =  -1.91301875126799E+00  2.81271653764187E-03
 cg2d: Sum(rhs),rhsMax =  -2.30705945389249E+00  2.88449365686169E-03
 cg2d: Sum(rhs),rhsMax =  -2.64297559986562E+00  2.95188709923621E-03
 cg2d: Sum(rhs),rhsMax =  -2.86495137488367E+00  3.00154102745631E-03
 cg2d: Sum(rhs),rhsMax =  -2.94238817189890E+00  3.02377910031029E-03
 cg2d: Sum(rhs),rhsMax =  -2.84207305995247E+00  3.04217205839791E-03
 cg2d: Sum(rhs),rhsMax =  -2.51902168451887E+00  3.13830804152662E-03
 cg2d: Sum(rhs),rhsMax =  -2.14123722587232E+00  3.18959322637137E-03
 cg2d: Sum(rhs),rhsMax =  -1.76835910939449E+00  3.18714931547076E-03
 cg2d: Sum(rhs),rhsMax =  -1.45590341066748E+00  3.13272228389843E-03
 cg2d: Sum(rhs),rhsMax =  -1.25508061628047E+00  3.03818416422645E-03
 cg2d: Sum(rhs),rhsMax =  -1.20874894090597E+00  2.92305991186994E-03
 cg2d: Sum(rhs),rhsMax =  -1.34034300304603E+00  2.81059305400946E-03
 cg2d: Sum(rhs),rhsMax =  -1.62624330268180E+00  2.74190554185838E-03
(PID.TID 0000.0001) Did not write pickup because writePickupAtEnd = FALSE
 --> objf_test(bi,bj)   =  0.509071989555268D-01
 --> objf_tracer(bi,bj) =  0.000000000000000D+00
 --> objf_atl(bi,bj)    =  0.000000000000000D+00
  local fc =  0.509071989555268D-01
 global fc =  0.509071989555268D-01
 ph-check fcpertplus =   5.09071989555268320E-002
 ph-check fcpertminus =   5.09071982061511247E-002
(PID.TID 0000.0001) INI_CG2D: CG2D normalisation factor =  1.9999999999999996E-04
(PID.TID 0000.0001) 
                     ctrl_depth_ini: ctrl update R_low,
                                     adding the control vector.
(PID.TID 0000.0001) Start initial hydrostatic pressure computation
(PID.TID 0000.0001) Pressure is predetermined for buoyancyRelation OCEANIC
(PID.TID 0000.0001) 
(PID.TID 0000.0001) // =======================================================
(PID.TID 0000.0001) // Model current state
(PID.TID 0000.0001) // =======================================================
(PID.TID 0000.0001) 
(PID.TID 0000.0001) SOLVE_FOR_PRESSURE: putPmEinXvector =    F
 cg2d: Sum(rhs),rhsMax =   0.00000000000000E+00  0.00000000000000E+00
 cg2d: Sum(rhs),rhsMax =  -2.49999999999995E+01  6.03492218443701E-05
 cg2d: Sum(rhs),rhsMax =  -1.81034404639062E+01  2.18766023587219E-04
 cg2d: Sum(rhs),rhsMax =  -1.54955562611022E+01  4.32479836914693E-04
 cg2d: Sum(rhs),rhsMax =  -1.41111452096138E+01  6.49958989399637E-04
 cg2d: Sum(rhs),rhsMax =  -1.31144322158993E+01  8.30737103932002E-04
 cg2d: Sum(rhs),rhsMax =  -1.21209090253285E+01  9.52510662539022E-04
 cg2d: Sum(rhs),rhsMax =  -1.07124742380544E+01  1.02806631156200E-03
 cg2d: Sum(rhs),rhsMax =  -7.41375936498595E+00  1.27086596364669E-03
 cg2d: Sum(rhs),rhsMax =  -4.70217533395805E+00  1.51019014116141E-03
 cg2d: Sum(rhs),rhsMax =  -2.72440685946065E+00  1.65833738303780E-03
 cg2d: Sum(rhs),rhsMax =  -1.27958669096709E+00  1.70565508768073E-03
 cg2d: Sum(rhs),rhsMax =  -3.29564699435975E-01  1.66071960479091E-03
 cg2d: Sum(rhs),rhsMax =   5.21320407797371E-02  1.54812755929790E-03
 cg2d: Sum(rhs),rhsMax =  -2.86625375011537E-01  1.40338815757684E-03
 cg2d: Sum(rhs),rhsMax =  -1.30315843291680E+00  1.44268599760967E-03
 cg2d: Sum(rhs),rhsMax =  -2.68067690071724E+00  1.50836886752203E-03
 cg2d: Sum(rhs),rhsMax =  -4.07407452913931E+00  1.58424367083072E-03
 cg2d: Sum(rhs),rhsMax =  -5.18272347312483E+00  1.66593593082888E-03
 cg2d: Sum(rhs),rhsMax =  -5.80990597477801E+00  1.74846175608976E-03
 cg2d: Sum(rhs),rhsMax =  -5.87740626755541E+00  1.82725971455842E-03
 cg2d: Sum(rhs),rhsMax =  -5.41358310675822E+00  1.89900434940590E-03
 cg2d: Sum(rhs),rhsMax =  -4.53080676272226E+00  1.96213934787755E-03
 cg2d: Sum(rhs),rhsMax =  -3.22587900260744E+00  2.12611201873353E-03
 cg2d: Sum(rhs),rhsMax =  -2.04447212792518E+00  2.24837952964953E-03
 cg2d: Sum(rhs),rhsMax =  -1.10818137888147E+00  2.30404048277803E-03
 cg2d: Sum(rhs),rhsMax =  -4.90484884542678E-01  2.29576531392617E-03
 cg2d: Sum(rhs),rhsMax =  -2.61247067488938E-01  2.23814840980804E-03
 cg2d: Sum(rhs),rhsMax =  -4.50921970486436E-01  2.26266907229058E-03
 cg2d: Sum(rhs),rhsMax =  -1.00469610740187E+00  2.31946123364828E-03
 cg2d: Sum(rhs),rhsMax =  -1.78565331397641E+00  2.37599941957829E-03
 cg2d: Sum(rhs),rhsMax =  -2.62429308650668E+00  2.42805543834241E-03
 cg2d: Sum(rhs),rhsMax =  -3.35748486369836E+00  2.47123045495001E-03
 cg2d: Sum(rhs),rhsMax =  -3.85508917418866E+00  2.50195598817465E-03
 cg2d: Sum(rhs),rhsMax =  -4.03589977766555E+00  2.51830323031360E-03
 cg2d: Sum(rhs),rhsMax =  -3.87512847791246E+00  2.52047519583721E-03
 cg2d: Sum(rhs),rhsMax =  -3.40600368576633E+00  2.51092922244743E-03
 cg2d: Sum(rhs),rhsMax =  -2.61682444203103E+00  2.58874087016070E-03
 cg2d: Sum(rhs),rhsMax =  -1.83238713020471E+00  2.61669729648411E-03
 cg2d: Sum(rhs),rhsMax =  -1.17513338993331E+00  2.56005945928966E-03
 cg2d: Sum(rhs),rhsMax =  -7.11994634984516E-01  2.47855827116472E-03
 cg2d: Sum(rhs),rhsMax =  -5.26422159638103E-01  2.47042092995894E-03
 cg2d: Sum(rhs),rhsMax =  -6.78930224118834E-01  2.49676870785935E-03
 cg2d: Sum(rhs),rhsMax =  -1.12673723073336E+00  2.53652611923993E-03
 cg2d: Sum(rhs),rhsMax =  -1.75981626511898E+00  2.58504764333280E-03
 cg2d: Sum(rhs),rhsMax =  -2.43940637005127E+00  2.63568090750527E-03
 cg2d: Sum(rhs),rhsMax =  -3.03203010719691E+00  2.68092814304913E-03
 cg2d: Sum(rhs),rhsMax =  -3.40991305594651E+00  2.73286310385595E-03
 cg2d: Sum(rhs),rhsMax =  -3.48046016892556E+00  2.80943929027294E-03
 cg2d: Sum(rhs),rhsMax =  -3.32063066989762E+00  2.84054015559757E-03
 cg2d: Sum(rhs),rhsMax =  -2.96079442079841E+00  2.82589064799287E-03
 cg2d: Sum(rhs),rhsMax =  -2.32992812803865E+00  2.92147975151263E-03
 cg2d: Sum(rhs),rhsMax =  -1.72242457914427E+00  2.94384963337406E-03
 cg2d: Sum(rhs),rhsMax =  -1.21221905455353E+00  2.89157780377562E-03
 cg2d: Sum(rhs),rhsMax =  -8.69698414019369E-01  2.78046458067658E-03
 cg2d: Sum(rhs),rhsMax =  -7.64867826549896E-01  2.63730950758226E-03
 cg2d: Sum(rhs),rhsMax =  -9.31747842690150E-01  2.54529711501441E-03
 cg2d: Sum(rhs),rhsMax =  -1.31074337111538E+00  2.59464776844221E-03
 cg2d: Sum(rhs),rhsMax =  -1.82960839947123E+00  2.67470096569570E-03
 cg2d: Sum(rhs),rhsMax =  -2.36415404571018E+00  2.77096220692948E-03
 cg2d: Sum(rhs),rhsMax =  -2.80794773698351E+00  2.86583714737213E-03
 cg2d: Sum(rhs),rhsMax =  -3.09076531441526E+00  2.94225362998462E-03
 cg2d: Sum(rhs),rhsMax =  -3.17911017058888E+00  2.98708416085315E-03
 cg2d: Sum(rhs),rhsMax =  -3.06968974092000E+00  2.99369711219782E-03
 cg2d: Sum(rhs),rhsMax =  -2.74200033583822E+00  3.00868116617106E-03
 cg2d: Sum(rhs),rhsMax =  -2.22987021417488E+00  3.08320497142587E-03
 cg2d: Sum(rhs),rhsMax =  -1.72892387405146E+00  3.09216603295994E-03
 cg2d: Sum(rhs),rhsMax =  -1.30661129553109E+00  3.03707925000931E-03
 cg2d: Sum(rhs),rhsMax =  -1.02724591277176E+00  2.93201255760744E-03
 cg2d: Sum(rhs),rhsMax =  -9.49612122658613E-01  2.80059569650832E-03
 cg2d: Sum(rhs),rhsMax =  -1.10546681576859E+00  2.68802022921521E-03
 cg2d: Sum(rhs),rhsMax =  -1.41911844790205E+00  2.73183514965531E-03
 cg2d: Sum(rhs),rhsMax =  -1.85263649744984E+00  2.80075135187783E-03
 cg2d: Sum(rhs),rhsMax =  -2.30607101179254E+00  2.88121995607199E-03
 cg2d: Sum(rhs),rhsMax =  -2.69038327672060E+00  2.95745910003674E-03
 cg2d: Sum(rhs),rhsMax =  -2.94313278798250E+00  3.01465321245795E-03
 cg2d: Sum(rhs),rhsMax =  -3.03123917265057E+00  3.04190037728965E-03
 cg2d: Sum(rhs),rhsMax =  -2.94785315749528E+00  3.03433152305531E-03
 cg2d: Sum(rhs),rhsMax =  -2.61356659814378E+00  3.10365979266497E-03
 cg2d: Sum(rhs),rhsMax =  -2.18161321999433E+00  3.16115506261014E-03
 cg2d: Sum(rhs),rhsMax =  -1.75526128431087E+00  3.15966314842401E-03
 cg2d: Sum(rhs),rhsMax =  -1.39603748201394E+00  3.10114913738074E-03
 cg2d: Sum(rhs),rhsMax =  -1.16177145091132E+00  2.99876547132311E-03
 cg2d: Sum(rhs),rhsMax =  -1.10293752510315E+00  2.87411085065057E-03
 cg2d: Sum(rhs),rhsMax =  -1.24975139740973E+00  2.75286356417060E-03
 cg2d: Sum(rhs),rhsMax =  -1.53840868175984E+00  2.75098229717711E-03
 cg2d: Sum(rhs),rhsMax =  -1.91301870176207E+00  2.81271682261344E-03
 cg2d: Sum(rhs),rhsMax =  -2.30705936885127E+00  2.88449394379840E-03
 cg2d: Sum(rhs),rhsMax =  -2.64297548514799E+00  2.95188738912710E-03
 cg2d: Sum(rhs),rhsMax =  -2.86495124024352E+00  3.00154132158024E-03
 cg2d: Sum(rhs),rhsMax =  -2.94238802898598E+00  3.02377939998740E-03
 cg2d: Sum(rhs),rhsMax =  -2.84207318311787E+00  3.04217208871008E-03
 cg2d: Sum(rhs),rhsMax =  -2.51902180955892E+00  3.13830807316426E-03
 cg2d: Sum(rhs),rhsMax =  -2.14123735483391E+00  3.18959326001759E-03
 cg2d: Sum(rhs),rhsMax =  -1.76835924446481E+00  3.18714935171426E-03
 cg2d: Sum(rhs),rhsMax =  -1.45590355385058E+00  3.13272232311736E-03
 cg2d: Sum(rhs),rhsMax =  -1.25508076882975E+00  3.03818420651370E-03
 cg2d: Sum(rhs),rhsMax =  -1.20874910261107E+00  2.92305995701533E-03
 cg2d: Sum(rhs),rhsMax =  -1.34034317170653E+00  2.81059310154243E-03
 cg2d: Sum(rhs),rhsMax =  -1.62624329623383E+00  2.74190588975675E-03
(PID.TID 0000.0001) Did not write pickup because writePickupAtEnd = FALSE
 --> objf_test(bi,bj)   =  0.509071974567757D-01
 --> objf_tracer(bi,bj) =  0.000000000000000D+00
 --> objf_atl(bi,bj)    =  0.000000000000000D+00
  local fc =  0.509071974567757D-01
 global fc =  0.509071974567757D-01
grad-res -------------------------------
 grad-res     0    1    1    1    1    1    1    1   5.09071982062E-02  5.09071989555E-02  5.09071974568E-02
 grad-res     0    1    1    1    0    1    1    1   7.49377218654E-06  7.49375589360E-06  2.17419812087E-06
(PID.TID 0000.0001)  ADM  ref_cost_function      =  5.09071982061511E-02
(PID.TID 0000.0001)  ADM  adjoint_gradient       =  7.49377218654043E-06
(PID.TID 0000.0001)  ADM  finite-diff_grad       =  7.49375589359502E-06
 ph-grd  ierr ---------------------------
 ph-grd  ierr =            0 , icomp =            1 , ichknum =            1
 ph-test icomp, ncvarcomp, ichknum            4          25           2
 ph-grd _loc: bi, bj, icomptest, ichknum            1           1           1           2
 ph-grd -->hit<--            4           1           1           1
(PID.TID 0000.0001) INI_CG2D: CG2D normalisation factor =  1.9999999999999996E-04
(PID.TID 0000.0001) 
                     ctrl_depth_ini: ctrl update R_low,
                                     adding the control vector.
(PID.TID 0000.0001) Start initial hydrostatic pressure computation
(PID.TID 0000.0001) Pressure is predetermined for buoyancyRelation OCEANIC
(PID.TID 0000.0001) 
(PID.TID 0000.0001) // =======================================================
(PID.TID 0000.0001) // Model current state
(PID.TID 0000.0001) // =======================================================
(PID.TID 0000.0001) 
(PID.TID 0000.0001) SOLVE_FOR_PRESSURE: putPmEinXvector =    F
 cg2d: Sum(rhs),rhsMax =   0.00000000000000E+00  0.00000000000000E+00
 cg2d: Sum(rhs),rhsMax =  -2.49999999999995E+01  6.03492218443701E-05
 cg2d: Sum(rhs),rhsMax =  -1.81034404639062E+01  2.18766023587219E-04
 cg2d: Sum(rhs),rhsMax =  -1.54955562832449E+01  4.32479836297457E-04
 cg2d: Sum(rhs),rhsMax =  -1.41111452296145E+01  6.49958988476958E-04
 cg2d: Sum(rhs),rhsMax =  -1.31144322279398E+01  8.30737103161443E-04
 cg2d: Sum(rhs),rhsMax =  -1.21209090257723E+01  9.52510662485018E-04
 cg2d: Sum(rhs),rhsMax =  -1.07124742025874E+01  1.02806631492856E-03
 cg2d: Sum(rhs),rhsMax =  -7.41375936334015E+00  1.27086596385025E-03
 cg2d: Sum(rhs),rhsMax =  -4.70217533261453E+00  1.51019014143193E-03
 cg2d: Sum(rhs),rhsMax =  -2.72440685828452E+00  1.65833738342599E-03
 cg2d: Sum(rhs),rhsMax =  -1.27958668997799E+00  1.70565508824331E-03
 cg2d: Sum(rhs),rhsMax =  -3.29564698696447E-01  1.66071960557705E-03
 cg2d: Sum(rhs),rhsMax =   5.21320413291098E-02  1.54812756033500E-03
 cg2d: Sum(rhs),rhsMax =  -2.86625374180375E-01  1.40338815886087E-03
 cg2d: Sum(rhs),rhsMax =  -1.30315843814887E+00  1.44268599128662E-03
 cg2d: Sum(rhs),rhsMax =  -2.68067691395586E+00  1.50836885983567E-03
 cg2d: Sum(rhs),rhsMax =  -4.07407454992808E+00  1.58424366257890E-03
 cg2d: Sum(rhs),rhsMax =  -5.18272349730874E+00  1.66593592288529E-03
 cg2d: Sum(rhs),rhsMax =  -5.80990599680601E+00  1.74846174924499E-03
 cg2d: Sum(rhs),rhsMax =  -5.87740628326711E+00  1.82725970936706E-03
 cg2d: Sum(rhs),rhsMax =  -5.41358311495198E+00  1.89900434606832E-03
 cg2d: Sum(rhs),rhsMax =  -4.53080676494407E+00  1.96213934618151E-03
 cg2d: Sum(rhs),rhsMax =  -3.22587899832987E+00  2.12611202025305E-03
 cg2d: Sum(rhs),rhsMax =  -2.04447212402897E+00  2.24837953146499E-03
 cg2d: Sum(rhs),rhsMax =  -1.10818137525385E+00  2.30404048505237E-03
 cg2d: Sum(rhs),rhsMax =  -4.90484881085757E-01  2.29576531680082E-03
 cg2d: Sum(rhs),rhsMax =  -2.61247063896094E-01  2.23814841338070E-03
 cg2d: Sum(rhs),rhsMax =  -4.50921969068542E-01  2.26266906253385E-03
 cg2d: Sum(rhs),rhsMax =  -1.00469610963058E+00  2.31946122046217E-03
 cg2d: Sum(rhs),rhsMax =  -1.78565332256749E+00  2.37599940333471E-03
 cg2d: Sum(rhs),rhsMax =  -2.62429310276840E+00  2.42805541977968E-03
 cg2d: Sum(rhs),rhsMax =  -3.35748488668090E+00  2.47123043503792E-03
 cg2d: Sum(rhs),rhsMax =  -3.85508920091624E+00  2.50195596794108E-03
 cg2d: Sum(rhs),rhsMax =  -4.03589980420757E+00  2.51830321066427E-03
 cg2d: Sum(rhs),rhsMax =  -3.87512850068950E+00  2.52047517740095E-03
 cg2d: Sum(rhs),rhsMax =  -3.40600370249840E+00  2.51092920547469E-03
 cg2d: Sum(rhs),rhsMax =  -2.61682442333352E+00  2.58874088190352E-03
 cg2d: Sum(rhs),rhsMax =  -1.83238711442787E+00  2.61669730832654E-03
 cg2d: Sum(rhs),rhsMax =  -1.17513337622011E+00  2.56005947091473E-03
 cg2d: Sum(rhs),rhsMax =  -7.11994622780167E-01  2.47855828105956E-03
 cg2d: Sum(rhs),rhsMax =  -5.26422153294204E-01  2.47042091255359E-03
 cg2d: Sum(rhs),rhsMax =  -6.78930218912743E-01  2.49676868819256E-03
 cg2d: Sum(rhs),rhsMax =  -1.12673722963832E+00  2.53652609703035E-03
 cg2d: Sum(rhs),rhsMax =  -1.75981627060448E+00  2.58504761864561E-03
 cg2d: Sum(rhs),rhsMax =  -2.43940638314541E+00  2.63568088072009E-03
 cg2d: Sum(rhs),rhsMax =  -3.03203012702810E+00  2.68092811477002E-03
 cg2d: Sum(rhs),rhsMax =  -3.40991306639035E+00  2.73286308534566E-03
 cg2d: Sum(rhs),rhsMax =  -3.48046018010278E+00  2.80943927066016E-03
 cg2d: Sum(rhs),rhsMax =  -3.32063068042560E+00  2.84054013472067E-03
 cg2d: Sum(rhs),rhsMax =  -2.96079442919692E+00  2.82589062572002E-03
 cg2d: Sum(rhs),rhsMax =  -2.32992809993895E+00  2.92147976736158E-03
 cg2d: Sum(rhs),rhsMax =  -1.72242455346638E+00  2.94384964928069E-03
 cg2d: Sum(rhs),rhsMax =  -1.21221903028191E+00  2.89157781942543E-03
 cg2d: Sum(rhs),rhsMax =  -8.69698389792650E-01  2.78046459586072E-03
 cg2d: Sum(rhs),rhsMax =  -7.64867800690752E-01  2.63730952223481E-03
 cg2d: Sum(rhs),rhsMax =  -9.31747830506139E-01  2.54529708420000E-03
 cg2d: Sum(rhs),rhsMax =  -1.31074336326255E+00  2.59464773638565E-03
 cg2d: Sum(rhs),rhsMax =  -1.82960839791627E+00  2.67470093240299E-03
 cg2d: Sum(rhs),rhsMax =  -2.36415405071457E+00  2.77096217236742E-03
 cg2d: Sum(rhs),rhsMax =  -2.80794774745362E+00  2.86583711147576E-03
 cg2d: Sum(rhs),rhsMax =  -3.09076532846898E+00  2.94225359267228E-03
 cg2d: Sum(rhs),rhsMax =  -3.17911018597016E+00  2.98708412204566E-03
 cg2d: Sum(rhs),rhsMax =  -3.06968975519973E+00  2.99369707183726E-03
 cg2d: Sum(rhs),rhsMax =  -2.74200029146129E+00  3.00868118383469E-03
 cg2d: Sum(rhs),rhsMax =  -2.22987017236482E+00  3.08320498924774E-03
 cg2d: Sum(rhs),rhsMax =  -1.72892383397465E+00  3.09216605066168E-03
 cg2d: Sum(rhs),rhsMax =  -1.30661125597163E+00  3.03707926737647E-03
 cg2d: Sum(rhs),rhsMax =  -1.02724587222060E+00  2.93201257453406E-03
 cg2d: Sum(rhs),rhsMax =  -9.49612079405874E-01  2.80059571301729E-03
 cg2d: Sum(rhs),rhsMax =  -1.10546679574748E+00  2.68802017902200E-03
 cg2d: Sum(rhs),rhsMax =  -1.41911843320327E+00  2.73183509825624E-03
 cg2d: Sum(rhs),rhsMax =  -1.85263649053877E+00  2.80075129922506E-03
 cg2d: Sum(rhs),rhsMax =  -2.30607101308022E+00  2.88121990207689E-03
 cg2d: Sum(rhs),rhsMax =  -2.69038328493702E+00  2.95745904458584E-03
 cg2d: Sum(rhs),rhsMax =  -2.94313280079814E+00  3.01465315543485E-03
 cg2d: Sum(rhs),rhsMax =  -3.03123918716675E+00  3.04190031859856E-03
 cg2d: Sum(rhs),rhsMax =  -2.94785317052951E+00  3.03433146264141E-03
 cg2d: Sum(rhs),rhsMax =  -2.61356653590412E+00  3.10365981166570E-03
 cg2d: Sum(rhs),rhsMax =  -2.18161316006311E+00  3.16115508134520E-03
 cg2d: Sum(rhs),rhsMax =  -1.75526122555908E+00  3.15966316664445E-03
 cg2d: Sum(rhs),rhsMax =  -1.39603742294945E+00  3.10114915494193E-03
 cg2d: Sum(rhs),rhsMax =  -1.16177138984020E+00  2.99876548821685E-03
 cg2d: Sum(rhs),rhsMax =  -1.10293746030013E+00  2.87411086700913E-03
 cg2d: Sum(rhs),rhsMax =  -1.24975132735748E+00  2.75286358024122E-03
 cg2d: Sum(rhs),rhsMax =  -1.53840865727302E+00  2.75098222576759E-03
 cg2d: Sum(rhs),rhsMax =  -1.91301868649352E+00  2.81271675009814E-03
 cg2d: Sum(rhs),rhsMax =  -2.30705936325668E+00  2.88449387008457E-03
 cg2d: Sum(rhs),rhsMax =  -2.64297548766755E+00  2.95188731408586E-03
 cg2d: Sum(rhs),rhsMax =  -2.86495124803416E+00  3.00154124507088E-03
 cg2d: Sum(rhs),rhsMax =  -2.94238803852410E+00  3.02377932188377E-03
 cg2d: Sum(rhs),rhsMax =  -2.84207309743617E+00  3.04217210782015E-03
 cg2d: Sum(rhs),rhsMax =  -2.51902172683155E+00  3.13830809211886E-03
 cg2d: Sum(rhs),rhsMax =  -2.14123727427173E+00  3.18959327846019E-03
 cg2d: Sum(rhs),rhsMax =  -1.76835916469599E+00  3.18714936936359E-03
 cg2d: Sum(rhs),rhsMax =  -1.45590347316449E+00  3.13272233982286E-03
 cg2d: Sum(rhs),rhsMax =  -1.25508068540474E+00  3.03818422228559E-03
 cg2d: Sum(rhs),rhsMax =  -1.20874901475884E+00  2.92305997202283E-03
 cg2d: Sum(rhs),rhsMax =  -1.34034307815925E+00  2.81059311608049E-03
 cg2d: Sum(rhs),rhsMax =  -1.62624325979653E+00  2.74190579865250E-03
(PID.TID 0000.0001) Did not write pickup because writePickupAtEnd = FALSE
 --> objf_test(bi,bj)   =  0.509071982523491D-01
 --> objf_tracer(bi,bj) =  0.000000000000000D+00
 --> objf_atl(bi,bj)    =  0.000000000000000D+00
  local fc =  0.509071982523491D-01
 global fc =  0.509071982523491D-01
 ph-check fcpertplus =   5.09071982523491076E-002
 ph-check fcpertminus =   5.09071982061511247E-002
(PID.TID 0000.0001) INI_CG2D: CG2D normalisation factor =  1.9999999999999996E-04
(PID.TID 0000.0001) 
                     ctrl_depth_ini: ctrl update R_low,
                                     adding the control vector.
(PID.TID 0000.0001) Start initial hydrostatic pressure computation
(PID.TID 0000.0001) Pressure is predetermined for buoyancyRelation OCEANIC
(PID.TID 0000.0001) 
(PID.TID 0000.0001) // =======================================================
(PID.TID 0000.0001) // Model current state
(PID.TID 0000.0001) // =======================================================
(PID.TID 0000.0001) 
(PID.TID 0000.0001) SOLVE_FOR_PRESSURE: putPmEinXvector =    F
 cg2d: Sum(rhs),rhsMax =   0.00000000000000E+00  0.00000000000000E+00
 cg2d: Sum(rhs),rhsMax =  -2.49999999999995E+01  6.03492218443701E-05
 cg2d: Sum(rhs),rhsMax =  -1.81034404639062E+01  2.18766023587219E-04
 cg2d: Sum(rhs),rhsMax =  -1.54955562831845E+01  4.32479836297438E-04
 cg2d: Sum(rhs),rhsMax =  -1.41111452362849E+01  6.49958988169866E-04
 cg2d: Sum(rhs),rhsMax =  -1.31144322385828E+01  8.30737102495332E-04
 cg2d: Sum(rhs),rhsMax =  -1.21209090393051E+01  9.52510661445578E-04
 cg2d: Sum(rhs),rhsMax =  -1.07124742718264E+01  1.02806630833558E-03
 cg2d: Sum(rhs),rhsMax =  -7.41375936997393E+00  1.27086596283120E-03
 cg2d: Sum(rhs),rhsMax =  -4.70217533649361E+00  1.51019014044425E-03
 cg2d: Sum(rhs),rhsMax =  -2.72440686027393E+00  1.65833738277424E-03
 cg2d: Sum(rhs),rhsMax =  -1.27958669096817E+00  1.70565508829939E-03
 cg2d: Sum(rhs),rhsMax =  -3.29564699608656E-01  1.66071960673076E-03
 cg2d: Sum(rhs),rhsMax =   5.21320400017081E-02  1.54812756293763E-03
 cg2d: Sum(rhs),rhsMax =  -2.86625374620715E-01  1.40338816317024E-03
 cg2d: Sum(rhs),rhsMax =  -1.30315842925484E+00  1.44268600247074E-03
 cg2d: Sum(rhs),rhsMax =  -2.68067689203264E+00  1.50836887278944E-03
 cg2d: Sum(rhs),rhsMax =  -4.07407451710278E+00  1.58424367575248E-03
 cg2d: Sum(rhs),rhsMax =  -5.18272346166990E+00  1.66593593469633E-03
 cg2d: Sum(rhs),rhsMax =  -5.80990596775551E+00  1.74846175837055E-03
 cg2d: Sum(rhs),rhsMax =  -5.87740626668414E+00  1.82725971500411E-03
 cg2d: Sum(rhs),rhsMax =  -5.41358311103378E+00  1.89900434811325E-03
 cg2d: Sum(rhs),rhsMax =  -4.53080676932704E+00  1.96213934529032E-03
 cg2d: Sum(rhs),rhsMax =  -3.22587897983995E+00  2.12611203415613E-03
 cg2d: Sum(rhs),rhsMax =  -2.04447211363588E+00  2.24837954605278E-03
 cg2d: Sum(rhs),rhsMax =  -1.10818137086476E+00  2.30404050069721E-03
 cg2d: Sum(rhs),rhsMax =  -4.90484880807031E-01  2.29576533395312E-03
 cg2d: Sum(rhs),rhsMax =  -2.61247065270977E-01  2.23814843249849E-03
 cg2d: Sum(rhs),rhsMax =  -4.50921969574706E-01  2.26266907803638E-03
 cg2d: Sum(rhs),rhsMax =  -1.00469610381024E+00  2.31946124188556E-03
 cg2d: Sum(rhs),rhsMax =  -1.78565330600775E+00  2.37599942975303E-03
 cg2d: Sum(rhs),rhsMax =  -2.62429307361487E+00  2.42805544967016E-03
 cg2d: Sum(rhs),rhsMax =  -3.35748484693598E+00  2.47123046655701E-03
 cg2d: Sum(rhs),rhsMax =  -3.85508915577242E+00  2.50195599925125E-03
 cg2d: Sum(rhs),rhsMax =  -4.03589976001849E+00  2.51830324025309E-03
 cg2d: Sum(rhs),rhsMax =  -3.87512846274155E+00  2.52047520433566E-03
 cg2d: Sum(rhs),rhsMax =  -3.40600367361374E+00  2.51092922954781E-03
 cg2d: Sum(rhs),rhsMax =  -2.61682444293646E+00  2.58874086642505E-03
 cg2d: Sum(rhs),rhsMax =  -1.83238712958363E+00  2.61669729265103E-03
 cg2d: Sum(rhs),rhsMax =  -1.17513338797813E+00  2.56005945501903E-03
 cg2d: Sum(rhs),rhsMax =  -7.11994615210770E-01  2.47855832371705E-03
 cg2d: Sum(rhs),rhsMax =  -5.26422152344824E-01  2.47042093876425E-03
 cg2d: Sum(rhs),rhsMax =  -6.78930214996304E-01  2.49676871872624E-03
 cg2d: Sum(rhs),rhsMax =  -1.12673721800450E+00  2.53652613224341E-03
 cg2d: Sum(rhs),rhsMax =  -1.75981624719053E+00  2.58504765826457E-03
 cg2d: Sum(rhs),rhsMax =  -2.43940634624807E+00  2.63568092393234E-03
 cg2d: Sum(rhs),rhsMax =  -3.03203007809134E+00  2.68092816041053E-03
 cg2d: Sum(rhs),rhsMax =  -3.40991317068769E+00  2.73286300362396E-03
 cg2d: Sum(rhs),rhsMax =  -3.48046028461362E+00  2.80943918795132E-03
 cg2d: Sum(rhs),rhsMax =  -3.32063078133392E+00  2.84054005001042E-03
 cg2d: Sum(rhs),rhsMax =  -2.96079452277037E+00  2.82589053812713E-03
 cg2d: Sum(rhs),rhsMax =  -2.32992812216413E+00  2.92147974158727E-03
 cg2d: Sum(rhs),rhsMax =  -1.72242457045114E+00  2.94384962292558E-03
 cg2d: Sum(rhs),rhsMax =  -1.21221904301325E+00  2.89157779247880E-03
 cg2d: Sum(rhs),rhsMax =  -8.69698399652463E-01  2.78046456826182E-03
 cg2d: Sum(rhs),rhsMax =  -7.64867809801845E-01  2.63730949388810E-03
 cg2d: Sum(rhs),rhsMax =  -9.31747868334231E-01  2.54529698189186E-03
 cg2d: Sum(rhs),rhsMax =  -1.31074341456891E+00  2.59464763429195E-03
 cg2d: Sum(rhs),rhsMax =  -1.82960846638466E+00  2.67470083093319E-03
 cg2d: Sum(rhs),rhsMax =  -2.36415413520165E+00  2.77096207148920E-03
 cg2d: Sum(rhs),rhsMax =  -2.80794784401617E+00  2.86583701072650E-03
 cg2d: Sum(rhs),rhsMax =  -3.09076543235404E+00  2.94225349126300E-03
 cg2d: Sum(rhs),rhsMax =  -3.17911029253731E+00  2.98708401903450E-03
 cg2d: Sum(rhs),rhsMax =  -3.06968985993402E+00  2.99369696633536E-03
 cg2d: Sum(rhs),rhsMax =  -2.74200032130656E+00  3.00868114696587E-03
 cg2d: Sum(rhs),rhsMax =  -2.22987019565493E+00  3.08320495157142E-03
 cg2d: Sum(rhs),rhsMax =  -1.72892385126051E+00  3.09216601214180E-03
 cg2d: Sum(rhs),rhsMax =  -1.30661126825180E+00  3.03707922793675E-03
 cg2d: Sum(rhs),rhsMax =  -1.02724588109146E+00  2.93201253407011E-03
 cg2d: Sum(rhs),rhsMax =  -9.49612087389354E-01  2.80059567141562E-03
 cg2d: Sum(rhs),rhsMax =  -1.10546683802711E+00  2.68802005903696E-03
 cg2d: Sum(rhs),rhsMax =  -1.41911848743112E+00  2.73183497905327E-03
 cg2d: Sum(rhs),rhsMax =  -1.85263656050444E+00  2.80075118096713E-03
 cg2d: Sum(rhs),rhsMax =  -2.30607109847476E+00  2.88121978445704E-03
 cg2d: Sum(rhs),rhsMax =  -2.69038338284852E+00  2.95745892688014E-03
 cg2d: Sum(rhs),rhsMax =  -2.94313290723366E+00  3.01465303664105E-03
 cg2d: Sum(rhs),rhsMax =  -3.03123929780537E+00  3.04190019763215E-03
 cg2d: Sum(rhs),rhsMax =  -2.94785328079583E+00  3.03433133854939E-03
 cg2d: Sum(rhs),rhsMax =  -2.61356656935779E+00  3.10365975965273E-03
 cg2d: Sum(rhs),rhsMax =  -2.18161318616341E+00  3.16115502844368E-03
 cg2d: Sum(rhs),rhsMax =  -1.75526124479772E+00  3.15966311280034E-03
 cg2d: Sum(rhs),rhsMax =  -1.39603743647468E+00  3.10114910005350E-03
 cg2d: Sum(rhs),rhsMax =  -1.16177139960148E+00  2.99876543215139E-03
 cg2d: Sum(rhs),rhsMax =  -1.10293746934442E+00  2.87411080962593E-03
 cg2d: Sum(rhs),rhsMax =  -1.24975133991327E+00  2.75286352141647E-03
 cg2d: Sum(rhs),rhsMax =  -1.53840872113891E+00  2.75098208507399E-03
 cg2d: Sum(rhs),rhsMax =  -1.91301876653657E+00  2.81271661015720E-03
 cg2d: Sum(rhs),rhsMax =  -2.30705945948712E+00  2.88449373057554E-03
 cg2d: Sum(rhs),rhsMax =  -2.64297559734609E+00  2.95188717427747E-03
 cg2d: Sum(rhs),rhsMax =  -2.86495136709305E+00  3.00154110396569E-03
 cg2d: Sum(rhs),rhsMax =  -2.94238816236080E+00  3.02377917841395E-03
 cg2d: Sum(rhs),rhsMax =  -2.84207314563419E+00  3.04217203928785E-03
 cg2d: Sum(rhs),rhsMax =  -2.51902176724626E+00  3.13830802257204E-03
 cg2d: Sum(rhs),rhsMax =  -2.14123730643456E+00  3.18959320792875E-03
 cg2d: Sum(rhs),rhsMax =  -1.76835918916334E+00  3.18714929782145E-03
 cg2d: Sum(rhs),rhsMax =  -1.45590349135361E+00  3.13272226719295E-03
 cg2d: Sum(rhs),rhsMax =  -1.25508069970552E+00  3.03818414845456E-03
 cg2d: Sum(rhs),rhsMax =  -1.20874902875824E+00  2.92305989686247E-03
 cg2d: Sum(rhs),rhsMax =  -1.34034309659336E+00  2.81059303947141E-03
 cg2d: Sum(rhs),rhsMax =  -1.62624333911913E+00  2.74190563296265E-03
(PID.TID 0000.0001) Did not write pickup because writePickupAtEnd = FALSE
 --> objf_test(bi,bj)   =  0.509071981599531D-01
 --> objf_tracer(bi,bj) =  0.000000000000000D+00
 --> objf_atl(bi,bj)    =  0.000000000000000D+00
  local fc =  0.509071981599531D-01
 global fc =  0.509071981599531D-01
grad-res -------------------------------
 grad-res     0    2    4    1    1    1    1    1   5.09071982062E-02  5.09071982523E-02  5.09071981600E-02
 grad-res     0    2    2    4    0    1    1    1   4.62347048633E-07  4.61980141642E-07  7.93574852494E-04
(PID.TID 0000.0001)  ADM  ref_cost_function      =  5.09071982061511E-02
(PID.TID 0000.0001)  ADM  adjoint_gradient       =  4.62347048632591E-07
(PID.TID 0000.0001)  ADM  finite-diff_grad       =  4.61980141641671E-07
 ph-grd  ierr ---------------------------
 ph-grd  ierr =            0 , icomp =            4 , ichknum =            2
 ph-test icomp, ncvarcomp, ichknum            7          25           3
 ph-grd _loc: bi, bj, icomptest, ichknum            1           1           4           3
 ph-grd -->hit<--            2           2           1           1
(PID.TID 0000.0001) INI_CG2D: CG2D normalisation factor =  1.9999999999999996E-04
(PID.TID 0000.0001) 
                     ctrl_depth_ini: ctrl update R_low,
                                     adding the control vector.
(PID.TID 0000.0001) Start initial hydrostatic pressure computation
(PID.TID 0000.0001) Pressure is predetermined for buoyancyRelation OCEANIC
(PID.TID 0000.0001) 
(PID.TID 0000.0001) // =======================================================
(PID.TID 0000.0001) // Model current state
(PID.TID 0000.0001) // =======================================================
(PID.TID 0000.0001) 
(PID.TID 0000.0001) SOLVE_FOR_PRESSURE: putPmEinXvector =    F
 cg2d: Sum(rhs),rhsMax =   0.00000000000000E+00  0.00000000000000E+00
 cg2d: Sum(rhs),rhsMax =  -2.49999999999995E+01  6.03492218443701E-05
 cg2d: Sum(rhs),rhsMax =  -1.81034404639062E+01  2.18766023587219E-04
 cg2d: Sum(rhs),rhsMax =  -1.54955563078389E+01  4.32479835610188E-04
 cg2d: Sum(rhs),rhsMax =  -1.41111452374741E+01  6.49958988115236E-04
 cg2d: Sum(rhs),rhsMax =  -1.31144322168412E+01  8.30737103869051E-04
 cg2d: Sum(rhs),rhsMax =  -1.21209089990131E+01  9.52510664600605E-04
 cg2d: Sum(rhs),rhsMax =  -1.07124742365900E+01  1.02806631169178E-03
 cg2d: Sum(rhs),rhsMax =  -7.41375936567261E+00  1.27086596350872E-03
 cg2d: Sum(rhs),rhsMax =  -4.70217533306699E+00  1.51019014141040E-03
 cg2d: Sum(rhs),rhsMax =  -2.72440685776775E+00  1.65833738400140E-03
 cg2d: Sum(rhs),rhsMax =  -1.27958668936753E+00  1.70565508968178E-03
 cg2d: Sum(rhs),rhsMax =  -3.29564698703164E-01  1.66071960808176E-03
 cg2d: Sum(rhs),rhsMax =   5.21320406756426E-02  1.54812756400042E-03
 cg2d: Sum(rhs),rhsMax =  -2.86625373744639E-01  1.40338816364604E-03
 cg2d: Sum(rhs),rhsMax =  -1.30315843159296E+00  1.44268599906039E-03
 cg2d: Sum(rhs),rhsMax =  -2.68067689816533E+00  1.50836886893674E-03
 cg2d: Sum(rhs),rhsMax =  -4.07407452556907E+00  1.58424367217408E-03
 cg2d: Sum(rhs),rhsMax =  -5.18272346896879E+00  1.66593593208203E-03
 cg2d: Sum(rhs),rhsMax =  -5.80990597046538E+00  1.74846175724679E-03
 cg2d: Sum(rhs),rhsMax =  -5.87740626339491E+00  1.82725971561976E-03
 cg2d: Sum(rhs),rhsMax =  -5.41358310292030E+00  1.89900435037028E-03
 cg2d: Sum(rhs),rhsMax =  -4.53080675925773E+00  1.96213934873475E-03
 cg2d: Sum(rhs),rhsMax =  -3.22587899064016E+00  2.12611202541840E-03
 cg2d: Sum(rhs),rhsMax =  -2.04447211895374E+00  2.24837953710414E-03
 cg2d: Sum(rhs),rhsMax =  -1.10818137201630E+00  2.30404049160582E-03
 cg2d: Sum(rhs),rhsMax =  -4.90484879129420E-01  2.29576532465555E-03
 cg2d: Sum(rhs),rhsMax =  -2.61247062261021E-01  2.23814842280433E-03
 cg2d: Sum(rhs),rhsMax =  -4.50921966428705E-01  2.26266907167755E-03
 cg2d: Sum(rhs),rhsMax =  -1.00469610324230E+00  2.31946123266092E-03
 cg2d: Sum(rhs),rhsMax =  -1.78565330999183E+00  2.37599941822350E-03
 cg2d: Sum(rhs),rhsMax =  -2.62429308288262E+00  2.42805543664950E-03
 cg2d: Sum(rhs),rhsMax =  -3.35748486042442E+00  2.47123045296532E-03
 cg2d: Sum(rhs),rhsMax =  -3.85508917103122E+00  2.50195598595294E-03
 cg2d: Sum(rhs),rhsMax =  -4.03589977421447E+00  2.51830322790746E-03
 cg2d: Sum(rhs),rhsMax =  -3.87512847367001E+00  2.52047519328720E-03
 cg2d: Sum(rhs),rhsMax =  -3.40600368024391E+00  2.51092921977442E-03
 cg2d: Sum(rhs),rhsMax =  -2.61682443410915E+00  2.58874086823086E-03
 cg2d: Sum(rhs),rhsMax =  -1.83238712105176E+00  2.61669729411626E-03
 cg2d: Sum(rhs),rhsMax =  -1.17513337916740E+00  2.56005945626717E-03
 cg2d: Sum(rhs),rhsMax =  -7.11994613788539E-01  2.47855829722440E-03
 cg2d: Sum(rhs),rhsMax =  -5.26422145495827E-01  2.47042092631002E-03
 cg2d: Sum(rhs),rhsMax =  -6.78930209281138E-01  2.49676870390640E-03
 cg2d: Sum(rhs),rhsMax =  -1.12673721582954E+00  2.53652611497845E-03
 cg2d: Sum(rhs),rhsMax =  -1.75981625060829E+00  2.58504763878418E-03
 cg2d: Sum(rhs),rhsMax =  -2.43940635608016E+00  2.63568090271550E-03
 cg2d: Sum(rhs),rhsMax =  -3.03203009355303E+00  2.68092813808284E-03
 cg2d: Sum(rhs),rhsMax =  -3.40991312727152E+00  2.73286303057723E-03
 cg2d: Sum(rhs),rhsMax =  -3.48046024128377E+00  2.80943921505870E-03
 cg2d: Sum(rhs),rhsMax =  -3.32063073889250E+00  2.84054007782326E-03
 cg2d: Sum(rhs),rhsMax =  -2.96079448207373E+00  2.82589056711951E-03
 cg2d: Sum(rhs),rhsMax =  -2.32992811030157E+00  2.92147974349186E-03
 cg2d: Sum(rhs),rhsMax =  -1.72242455878772E+00  2.94384962469885E-03
 cg2d: Sum(rhs),rhsMax =  -1.21221903114371E+00  2.89157779418205E-03
 cg2d: Sum(rhs),rhsMax =  -8.69698387227285E-01  2.78046456997049E-03
 cg2d: Sum(rhs),rhsMax =  -7.64867796529081E-01  2.63730949567637E-03
 cg2d: Sum(rhs),rhsMax =  -9.31747842306830E-01  2.54529701654343E-03
 cg2d: Sum(rhs),rhsMax =  -1.31074338416128E+00  2.59464766850187E-03
 cg2d: Sum(rhs),rhsMax =  -1.82960843070712E+00  2.67470086451563E-03
 cg2d: Sum(rhs),rhsMax =  -2.36415409483047E+00  2.77096210449762E-03
 cg2d: Sum(rhs),rhsMax =  -2.80794780020524E+00  2.86583704344234E-03
 cg2d: Sum(rhs),rhsMax =  -3.09076538638535E+00  2.94225352413499E-03
 cg2d: Sum(rhs),rhsMax =  -3.17911024552720E+00  2.98708405258178E-03
 cg2d: Sum(rhs),rhsMax =  -3.06968981297201E+00  2.99369700103531E-03
 cg2d: Sum(rhs),rhsMax =  -2.74200030703958E+00  3.00868115002900E-03
 cg2d: Sum(rhs),rhsMax =  -2.22987018193101E+00  3.08320495481944E-03
 cg2d: Sum(rhs),rhsMax =  -1.72892383778459E+00  3.09216601564154E-03
 cg2d: Sum(rhs),rhsMax =  -1.30661125472951E+00  3.03707923175982E-03
 cg2d: Sum(rhs),rhsMax =  -1.02724586721942E+00  2.93201253828045E-03
 cg2d: Sum(rhs),rhsMax =  -9.49612072822056E-01  2.80059567605822E-03
 cg2d: Sum(rhs),rhsMax =  -1.10546680782761E+00  2.68802009974061E-03
 cg2d: Sum(rhs),rhsMax =  -1.41911845354518E+00  2.73183501908970E-03
 cg2d: Sum(rhs),rhsMax =  -1.85263652193351E+00  2.80075122028798E-03
 cg2d: Sum(rhs),rhsMax =  -2.30607105541446E+00  2.88121982327300E-03
 cg2d: Sum(rhs),rhsMax =  -2.69038333611302E+00  2.95745896562611E-03
 cg2d: Sum(rhs),rhsMax =  -2.94313285778609E+00  3.01465307589503E-03
 cg2d: Sum(rhs),rhsMax =  -3.03123924662991E+00  3.04190023800454E-03
 cg2d: Sum(rhs),rhsMax =  -2.94785322901880E+00  3.03433138056480E-03
 cg2d: Sum(rhs),rhsMax =  -2.61356655207970E+00  3.10365976739637E-03
 cg2d: Sum(rhs),rhsMax =  -2.18161316990479E+00  3.16115503659280E-03
 cg2d: Sum(rhs),rhsMax =  -1.75526122928077E+00  3.15966312145002E-03
 cg2d: Sum(rhs),rhsMax =  -1.39603742135930E+00  3.10114910930128E-03
 cg2d: Sum(rhs),rhsMax =  -1.16177138445494E+00  2.99876544208214E-03
 cg2d: Sum(rhs),rhsMax =  -1.10293745357701E+00  2.87411082029905E-03
 cg2d: Sum(rhs),rhsMax =  -1.24975132275384E+00  2.75286353285763E-03
 cg2d: Sum(rhs),rhsMax =  -1.53840868148956E+00  2.75098213510829E-03
 cg2d: Sum(rhs),rhsMax =  -1.91301872181234E+00  2.81271665965221E-03
 cg2d: Sum(rhs),rhsMax =  -2.30705940974518E+00  2.88449377973141E-03
 cg2d: Sum(rhs),rhsMax =  -2.64297554339981E+00  2.95188722351822E-03
 cg2d: Sum(rhs),rhsMax =  -2.86495131004960E+00  3.00154115385600E-03
 cg2d: Sum(rhs),rhsMax =  -2.94238810344648E+00  3.02377922954912E-03
 cg2d: Sum(rhs),rhsMax =  -2.84207312203358E+00  3.04217205494073E-03
 cg2d: Sum(rhs),rhsMax =  -2.51902174563145E+00  3.13830803873292E-03
 cg2d: Sum(rhs),rhsMax =  -2.14123728672704E+00  3.18959322465492E-03
 cg2d: Sum(rhs),rhsMax =  -1.76835917106610E+00  3.18714931519163E-03
 cg2d: Sum(rhs),rhsMax =  -1.45590347439777E+00  3.13272228529462E-03
 cg2d: Sum(rhs),rhsMax =  -1.25508068321761E+00  3.03818416736973E-03
 cg2d: Sum(rhs),rhsMax =  -1.20874901179135E+00  2.92305991665505E-03
 cg2d: Sum(rhs),rhsMax =  -1.34034307792821E+00  2.81059306017826E-03
 cg2d: Sum(rhs),rhsMax =  -1.62624329350274E+00  2.74190569542413E-03
(PID.TID 0000.0001) Did not write pickup because writePickupAtEnd = FALSE
 --> objf_test(bi,bj)   =  0.509071982379655D-01
 --> objf_tracer(bi,bj) =  0.000000000000000D+00
 --> objf_atl(bi,bj)    =  0.000000000000000D+00
  local fc =  0.509071982379655D-01
 global fc =  0.509071982379655D-01
 ph-check fcpertplus =   5.09071982379655300E-002
 ph-check fcpertminus =   5.09071982061511247E-002
(PID.TID 0000.0001) INI_CG2D: CG2D normalisation factor =  1.9999999999999996E-04
(PID.TID 0000.0001) 
                     ctrl_depth_ini: ctrl update R_low,
                                     adding the control vector.
(PID.TID 0000.0001) Start initial hydrostatic pressure computation
(PID.TID 0000.0001) Pressure is predetermined for buoyancyRelation OCEANIC
(PID.TID 0000.0001) 
(PID.TID 0000.0001) // =======================================================
(PID.TID 0000.0001) // Model current state
(PID.TID 0000.0001) // =======================================================
(PID.TID 0000.0001) 
(PID.TID 0000.0001) SOLVE_FOR_PRESSURE: putPmEinXvector =    F
 cg2d: Sum(rhs),rhsMax =   0.00000000000000E+00  0.00000000000000E+00
 cg2d: Sum(rhs),rhsMax =  -2.49999999999995E+01  6.03492218443701E-05
 cg2d: Sum(rhs),rhsMax =  -1.81034404639062E+01  2.18766023587219E-04
 cg2d: Sum(rhs),rhsMax =  -1.54955562585903E+01  4.32479836984713E-04
 cg2d: Sum(rhs),rhsMax =  -1.41111452284253E+01  6.49958988531589E-04
 cg2d: Sum(rhs),rhsMax =  -1.31144322496814E+01  8.30737101787716E-04
 cg2d: Sum(rhs),rhsMax =  -1.21209090660645E+01  9.52510659329977E-04
 cg2d: Sum(rhs),rhsMax =  -1.07124742378239E+01  1.02806631157235E-03
 cg2d: Sum(rhs),rhsMax =  -7.41375936764164E+00  1.27086596317270E-03
 cg2d: Sum(rhs),rhsMax =  -4.70217533604121E+00  1.51019014046577E-03
 cg2d: Sum(rhs),rhsMax =  -2.72440686079073E+00  1.65833738219882E-03
 cg2d: Sum(rhs),rhsMax =  -1.27958669157866E+00  1.70565508686091E-03
 cg2d: Sum(rhs),rhsMax =  -3.29564699601980E-01  1.66071960422605E-03
 cg2d: Sum(rhs),rhsMax =   5.21320406551297E-02  1.54812755927222E-03
 cg2d: Sum(rhs),rhsMax =  -2.86625375056503E-01  1.40338815838507E-03
 cg2d: Sum(rhs),rhsMax =  -1.30315843581080E+00  1.44268599469697E-03
 cg2d: Sum(rhs),rhsMax =  -2.68067690782323E+00  1.50836886368836E-03
 cg2d: Sum(rhs),rhsMax =  -4.07407454146184E+00  1.58424366615730E-03
 cg2d: Sum(rhs),rhsMax =  -5.18272349000990E+00  1.66593592549959E-03
 cg2d: Sum(rhs),rhsMax =  -5.80990599409616E+00  1.74846175036877E-03
 cg2d: Sum(rhs),rhsMax =  -5.87740628655644E+00  1.82725970875138E-03
 cg2d: Sum(rhs),rhsMax =  -5.41358312306555E+00  1.89900434381128E-03
 cg2d: Sum(rhs),rhsMax =  -4.53080677501343E+00  1.96213934273708E-03
 cg2d: Sum(rhs),rhsMax =  -3.22587898752967E+00  2.12611202899079E-03
 cg2d: Sum(rhs),rhsMax =  -2.04447211871110E+00  2.24837954041361E-03
 cg2d: Sum(rhs),rhsMax =  -1.10818137410229E+00  2.30404049414377E-03
 cg2d: Sum(rhs),rhsMax =  -4.90484882763361E-01  2.29576532609839E-03
 cg2d: Sum(rhs),rhsMax =  -2.61247066906044E-01  2.23814842307485E-03
 cg2d: Sum(rhs),rhsMax =  -4.50921972214537E-01  2.26266906889267E-03
 cg2d: Sum(rhs),rhsMax =  -1.00469611019851E+00  2.31946122968681E-03
 cg2d: Sum(rhs),rhsMax =  -1.78565331858342E+00  2.37599941486422E-03
 cg2d: Sum(rhs),rhsMax =  -2.62429309350064E+00  2.42805543280035E-03
 cg2d: Sum(rhs),rhsMax =  -3.35748487319249E+00  2.47123044862959E-03
 cg2d: Sum(rhs),rhsMax =  -3.85508918565744E+00  2.50195598123940E-03
 cg2d: Sum(rhs),rhsMax =  -4.03589979001163E+00  2.51830322300988E-03
 cg2d: Sum(rhs),rhsMax =  -3.87512848976106E+00  2.52047518844941E-03
 cg2d: Sum(rhs),rhsMax =  -3.40600369586827E+00  2.51092921524807E-03
 cg2d: Sum(rhs),rhsMax =  -2.61682443216085E+00  2.58874088009772E-03
 cg2d: Sum(rhs),rhsMax =  -1.83238712295978E+00  2.61669730686133E-03
 cg2d: Sum(rhs),rhsMax =  -1.17513338503089E+00  2.56005946966657E-03
 cg2d: Sum(rhs),rhsMax =  -7.11994624202433E-01  2.47855830755221E-03
 cg2d: Sum(rhs),rhsMax =  -5.26422160143238E-01  2.47042092500782E-03
 cg2d: Sum(rhs),rhsMax =  -6.78930224627945E-01  2.49676870301240E-03
 cg2d: Sum(rhs),rhsMax =  -1.12673723181332E+00  2.53652611429532E-03
 cg2d: Sum(rhs),rhsMax =  -1.75981626718676E+00  2.58504763812600E-03
 cg2d: Sum(rhs),rhsMax =  -2.43940637331335E+00  2.63568090193694E-03
 cg2d: Sum(rhs),rhsMax =  -3.03203011156645E+00  2.68092813709772E-03
 cg2d: Sum(rhs),rhsMax =  -3.40991310980654E+00  2.73286305839240E-03
 cg2d: Sum(rhs),rhsMax =  -3.48046022343268E+00  2.80943924355278E-03
 cg2d: Sum(rhs),rhsMax =  -3.32063072286706E+00  2.84054010690782E-03
 cg2d: Sum(rhs),rhsMax =  -2.96079446989357E+00  2.82589059672765E-03
 cg2d: Sum(rhs),rhsMax =  -2.32992811180154E+00  2.92147976545699E-03
 cg2d: Sum(rhs),rhsMax =  -1.72242456512982E+00  2.94384964750742E-03
 cg2d: Sum(rhs),rhsMax =  -1.21221904215148E+00  2.89157781772218E-03
 cg2d: Sum(rhs),rhsMax =  -8.69698402217871E-01  2.78046459415204E-03
 cg2d: Sum(rhs),rhsMax =  -7.64867813963551E-01  2.63730952044655E-03
 cg2d: Sum(rhs),rhsMax =  -9.31747856533580E-01  2.54529704954843E-03
 cg2d: Sum(rhs),rhsMax =  -1.31074339367021E+00  2.59464770217574E-03
 cg2d: Sum(rhs),rhsMax =  -1.82960843359386E+00  2.67470089882054E-03
 cg2d: Sum(rhs),rhsMax =  -2.36415409108579E+00  2.77096213935899E-03
 cg2d: Sum(rhs),rhsMax =  -2.80794779126459E+00  2.86583707875991E-03
 cg2d: Sum(rhs),rhsMax =  -3.09076537443769E+00  2.94225355980031E-03
 cg2d: Sum(rhs),rhsMax =  -3.17911023298027E+00  2.98708408849840E-03
 cg2d: Sum(rhs),rhsMax =  -3.06968980216175E+00  2.99369703713732E-03
 cg2d: Sum(rhs),rhsMax =  -2.74200030572829E+00  3.00868118077155E-03
 cg2d: Sum(rhs),rhsMax =  -2.22987018608876E+00  3.08320498599972E-03
 cg2d: Sum(rhs),rhsMax =  -1.72892384745060E+00  3.09216604716195E-03
 cg2d: Sum(rhs),rhsMax =  -1.30661126949393E+00  3.03707926355340E-03
 cg2d: Sum(rhs),rhsMax =  -1.02724588609266E+00  2.93201257032373E-03
 cg2d: Sum(rhs),rhsMax =  -9.49612093973196E-01  2.80059570837469E-03
 cg2d: Sum(rhs),rhsMax =  -1.10546682594700E+00  2.68802013831836E-03
 cg2d: Sum(rhs),rhsMax =  -1.41911846708924E+00  2.73183505821980E-03
 cg2d: Sum(rhs),rhsMax =  -1.85263652910972E+00  2.80075125990421E-03
 cg2d: Sum(rhs),rhsMax =  -2.30607105614054E+00  2.88121986326092E-03
 cg2d: Sum(rhs),rhsMax =  -2.69038333167255E+00  2.95745900583987E-03
 cg2d: Sum(rhs),rhsMax =  -2.94313285024575E+00  3.01465311618085E-03
 cg2d: Sum(rhs),rhsMax =  -3.03123923834225E+00  3.04190027822617E-03
 cg2d: Sum(rhs),rhsMax =  -2.94785322230661E+00  3.03433142062598E-03
 cg2d: Sum(rhs),rhsMax =  -2.61356655318224E+00  3.10365980392205E-03
 cg2d: Sum(rhs),rhsMax =  -2.18161317632175E+00  3.16115507319606E-03
 cg2d: Sum(rhs),rhsMax =  -1.75526124107606E+00  3.15966315799476E-03
 cg2d: Sum(rhs),rhsMax =  -1.39603743806485E+00  3.10114914569416E-03
 cg2d: Sum(rhs),rhsMax =  -1.16177140498676E+00  2.99876547828609E-03
 cg2d: Sum(rhs),rhsMax =  -1.10293747606756E+00  2.87411085633600E-03
 cg2d: Sum(rhs),rhsMax =  -1.24975134451692E+00  2.75286356880007E-03
 cg2d: Sum(rhs),rhsMax =  -1.53840869692239E+00  2.75098217573328E-03
 cg2d: Sum(rhs),rhsMax =  -1.91301873121777E+00  2.81271670060313E-03
 cg2d: Sum(rhs),rhsMax =  -2.30705941299864E+00  2.88449382092869E-03
 cg2d: Sum(rhs),rhsMax =  -2.64297554161384E+00  2.95188726484512E-03
 cg2d: Sum(rhs),rhsMax =  -2.86495130507764E+00  3.00154119518056E-03
 cg2d: Sum(rhs),rhsMax =  -2.94238809743844E+00  3.02377927074858E-03
 cg2d: Sum(rhs),rhsMax =  -2.84207312103679E+00  3.04217209216728E-03
 cg2d: Sum(rhs),rhsMax =  -2.51902174844639E+00  3.13830807595797E-03
 cg2d: Sum(rhs),rhsMax =  -2.14123729397924E+00  3.18959326173405E-03
 cg2d: Sum(rhs),rhsMax =  -1.76835918279326E+00  3.18714935199341E-03
 cg2d: Sum(rhs),rhsMax =  -1.45590349012034E+00  3.13272232172119E-03
 cg2d: Sum(rhs),rhsMax =  -1.25508070189266E+00  3.03818420337042E-03
 cg2d: Sum(rhs),rhsMax =  -1.20874903172573E+00  2.92305995223025E-03
 cg2d: Sum(rhs),rhsMax =  -1.34034309682441E+00  2.81059309537365E-03
 cg2d: Sum(rhs),rhsMax =  -1.62624330541294E+00  2.74190573619103E-03
(PID.TID 0000.0001) Did not write pickup because writePickupAtEnd = FALSE
 --> objf_test(bi,bj)   =  0.509071981743367D-01
 --> objf_tracer(bi,bj) =  0.000000000000000D+00
 --> objf_atl(bi,bj)    =  0.000000000000000D+00
  local fc =  0.509071981743367D-01
 global fc =  0.509071981743367D-01
grad-res -------------------------------
 grad-res     0    3    2    2    1    1    1    1   5.09071982062E-02  5.09071982380E-02  5.09071981743E-02
 grad-res     0    3    3    7    0    1    1    1   3.17811985248E-07  3.18144122158E-07 -1.04507358046E-03
(PID.TID 0000.0001)  ADM  ref_cost_function      =  5.09071982061511E-02
(PID.TID 0000.0001)  ADM  adjoint_gradient       =  3.17811985248467E-07
(PID.TID 0000.0001)  ADM  finite-diff_grad       =  3.18144122157804E-07
 ph-grd  ierr ---------------------------
 ph-grd  ierr =            0 , icomp =            7 , ichknum =            3
 ph-test icomp, ncvarcomp, ichknum           10          25           4
 ph-grd _loc: bi, bj, icomptest, ichknum            1           1           7           4
 ph-grd -->hit<--            5           2           1           1
(PID.TID 0000.0001) INI_CG2D: CG2D normalisation factor =  1.9999999999999996E-04
(PID.TID 0000.0001) 
                     ctrl_depth_ini: ctrl update R_low,
                                     adding the control vector.
(PID.TID 0000.0001) Start initial hydrostatic pressure computation
(PID.TID 0000.0001) Pressure is predetermined for buoyancyRelation OCEANIC
(PID.TID 0000.0001) 
(PID.TID 0000.0001) // =======================================================
(PID.TID 0000.0001) // Model current state
(PID.TID 0000.0001) // =======================================================
(PID.TID 0000.0001) 
(PID.TID 0000.0001) SOLVE_FOR_PRESSURE: putPmEinXvector =    F
 cg2d: Sum(rhs),rhsMax =   0.00000000000000E+00  0.00000000000000E+00
 cg2d: Sum(rhs),rhsMax =  -2.49999999999995E+01  6.03492218443701E-05
 cg2d: Sum(rhs),rhsMax =  -1.81034404639062E+01  2.18766023587219E-04
 cg2d: Sum(rhs),rhsMax =  -1.54955562832147E+01  4.32479836297448E-04
 cg2d: Sum(rhs),rhsMax =  -1.41111452328286E+01  6.49958988329015E-04
 cg2d: Sum(rhs),rhsMax =  -1.31144322332375E+01  8.30737102830126E-04
 cg2d: Sum(rhs),rhsMax =  -1.21209090327092E+01  9.52510661952578E-04
 cg2d: Sum(rhs),rhsMax =  -1.07124742373494E+01  1.02806631161965E-03
 cg2d: Sum(rhs),rhsMax =  -7.41375936669904E+00  1.27086596333556E-03
 cg2d: Sum(rhs),rhsMax =  -4.70217533460680E+00  1.51019014092290E-03
 cg2d: Sum(rhs),rhsMax =  -2.72440685931944E+00  1.65833738307113E-03
 cg2d: Sum(rhs),rhsMax =  -1.27958669047718E+00  1.70565508822642E-03
 cg2d: Sum(rhs),rhsMax =  -3.29564699098960E-01  1.66071960609365E-03
 cg2d: Sum(rhs),rhsMax =   5.21320407889152E-02  1.54812756156515E-03
 cg2d: Sum(rhs),rhsMax =  -2.86625374212913E-01  1.40338816094232E-03
 cg2d: Sum(rhs),rhsMax =  -1.30315843461393E+00  1.44268599556540E-03
 cg2d: Sum(rhs),rhsMax =  -2.68067690628685E+00  1.50836886426707E-03
 cg2d: Sum(rhs),rhsMax =  -4.07407454041399E+00  1.58424366632503E-03
 cg2d: Sum(rhs),rhsMax =  -5.18272349028119E+00  1.66593592517242E-03
 cg2d: Sum(rhs),rhsMax =  -5.80990599603071E+00  1.74846174951354E-03
 cg2d: Sum(rhs),rhsMax =  -5.87740628982527E+00  1.82725970739107E-03
 cg2d: Sum(rhs),rhsMax =  -5.41358312682074E+00  1.89900434202049E-03
 cg2d: Sum(rhs),rhsMax =  -4.53080677824373E+00  1.96213934062878E-03
 cg2d: Sum(rhs),rhsMax =  -3.22587898734681E+00  2.12611202788195E-03
 cg2d: Sum(rhs),rhsMax =  -2.04447211734008E+00  2.24837953957369E-03
 cg2d: Sum(rhs),rhsMax =  -1.10818137178738E+00  2.30404049382420E-03
 cg2d: Sum(rhs),rhsMax =  -4.90484879813394E-01  2.29576532645684E-03
 cg2d: Sum(rhs),rhsMax =  -2.61247063432766E-01  2.23814842414656E-03
 cg2d: Sum(rhs),rhsMax =  -4.50921968936165E-01  2.26266906681830E-03
 cg2d: Sum(rhs),rhsMax =  -1.00469610716660E+00  2.31946122756826E-03
 cg2d: Sum(rhs),rhsMax =  -1.78565331612271E+00  2.37599941258486E-03
 cg2d: Sum(rhs),rhsMax =  -2.62429309188765E+00  2.42805543023994E-03
 cg2d: Sum(rhs),rhsMax =  -3.35748487260240E+00  2.47123044568520E-03
 cg2d: Sum(rhs),rhsMax =  -3.85508918606609E+00  2.50195597784216E-03
 cg2d: Sum(rhs),rhsMax =  -4.03589979111608E+00  2.51830321913482E-03
 cg2d: Sum(rhs),rhsMax =  -3.87512849097927E+00  2.52047518411691E-03
 cg2d: Sum(rhs),rhsMax =  -3.40600369644534E+00  2.51092921051717E-03
 cg2d: Sum(rhs),rhsMax =  -2.61682442592756E+00  2.58874088026959E-03
 cg2d: Sum(rhs),rhsMax =  -1.83238711651796E+00  2.61669730691514E-03
 cg2d: Sum(rhs),rhsMax =  -1.17513337799409E+00  2.56005946981861E-03
 cg2d: Sum(rhs),rhsMax =  -7.11994616975092E-01  2.47855830620588E-03
 cg2d: Sum(rhs),rhsMax =  -5.26422153296312E-01  2.47042091949450E-03
 cg2d: Sum(rhs),rhsMax =  -6.78930217874226E-01  2.49676869745977E-03
 cg2d: Sum(rhs),rhsMax =  -1.12673722591377E+00  2.53652610867679E-03
 cg2d: Sum(rhs),rhsMax =  -1.75981626265215E+00  2.58504763239770E-03
 cg2d: Sum(rhs),rhsMax =  -2.43940637034868E+00  2.63568089605000E-03
 cg2d: Sum(rhs),rhsMax =  -3.03203011007922E+00  2.68092813101025E-03
 cg2d: Sum(rhs),rhsMax =  -3.40991311653694E+00  2.73286304635408E-03
 cg2d: Sum(rhs),rhsMax =  -3.48046022813208E+00  2.80943923319330E-03
 cg2d: Sum(rhs),rhsMax =  -3.32063072457167E+00  2.84054009850293E-03
 cg2d: Sum(rhs),rhsMax =  -2.96079446855502E+00  2.82589059013053E-03
 cg2d: Sum(rhs),rhsMax =  -2.32992810174429E+00  2.92147976794272E-03
 cg2d: Sum(rhs),rhsMax =  -1.72242455548475E+00  2.94384965013618E-03
 cg2d: Sum(rhs),rhsMax =  -1.21221903260859E+00  2.89157782060633E-03
 cg2d: Sum(rhs),rhsMax =  -8.69698392489487E-01  2.78046459738816E-03
 cg2d: Sum(rhs),rhsMax =  -7.64867803717438E-01  2.63730952409962E-03
 cg2d: Sum(rhs),rhsMax =  -9.31747850358510E-01  2.54529704061615E-03
 cg2d: Sum(rhs),rhsMax =  -1.31074338969465E+00  2.59464769199936E-03
 cg2d: Sum(rhs),rhsMax =  -1.82960843240021E+00  2.67470088795296E-03
 cg2d: Sum(rhs),rhsMax =  -2.36415409227918E+00  2.77096212851230E-03
 cg2d: Sum(rhs),rhsMax =  -2.80794779368030E+00  2.86583706864423E-03
 cg2d: Sum(rhs),rhsMax =  -3.09076537672878E+00  2.94225355096567E-03
 cg2d: Sum(rhs),rhsMax =  -3.17911023415913E+00  2.98708408121362E-03
 cg2d: Sum(rhs),rhsMax =  -3.06968980185703E+00  2.99369703133079E-03
 cg2d: Sum(rhs),rhsMax =  -2.74200029333040E+00  3.00868118785613E-03
 cg2d: Sum(rhs),rhsMax =  -2.22987017502665E+00  3.08320499365209E-03
 cg2d: Sum(rhs),rhsMax =  -1.72892383756302E+00  3.09216605547369E-03
 cg2d: Sum(rhs),rhsMax =  -1.30661126056565E+00  3.03707927259299E-03
 cg2d: Sum(rhs),rhsMax =  -1.02724587778679E+00  2.93201258012347E-03
 cg2d: Sum(rhs),rhsMax =  -9.49612085720478E-01  2.80059571892522E-03
 cg2d: Sum(rhs),rhsMax =  -1.10546682573379E+00  2.68802012826295E-03
 cg2d: Sum(rhs),rhsMax =  -1.41911846911250E+00  2.73183504723644E-03
 cg2d: Sum(rhs),rhsMax =  -1.85263653357525E+00  2.80075124871638E-03
 cg2d: Sum(rhs),rhsMax =  -2.30607106246573E+00  2.88121985266430E-03
 cg2d: Sum(rhs),rhsMax =  -2.69038333874824E+00  2.95745899653950E-03
 cg2d: Sum(rhs),rhsMax =  -2.94313285696031E+00  3.01465310864528E-03
 cg2d: Sum(rhs),rhsMax =  -3.03123924402766E+00  3.04190027258865E-03
 cg2d: Sum(rhs),rhsMax =  -2.94785322692063E+00  3.03433141665302E-03
 cg2d: Sum(rhs),rhsMax =  -2.61356654146132E+00  3.10365981948565E-03
 cg2d: Sum(rhs),rhsMax =  -2.18161316697956E+00  3.16115508959872E-03
 cg2d: Sum(rhs),rhsMax =  -1.75526123402543E+00  3.15966317535453E-03
 cg2d: Sum(rhs),rhsMax =  -1.39603743306573E+00  3.10114916409573E-03
 cg2d: Sum(rhs),rhsMax =  -1.16177140154187E+00  2.99876549776697E-03
 cg2d: Sum(rhs),rhsMax =  -1.10293747326443E+00  2.87411087688174E-03
 cg2d: Sum(rhs),rhsMax =  -1.24975134095918E+00  2.75286359034921E-03
 cg2d: Sum(rhs),rhsMax =  -1.53840871019328E+00  2.75098216494772E-03
 cg2d: Sum(rhs),rhsMax =  -1.91301874697230E+00  2.81271668942098E-03
 cg2d: Sum(rhs),rhsMax =  -2.30705943065297E+00  2.88449381017198E-03
 cg2d: Sum(rhs),rhsMax =  -2.64297556017473E+00  2.95188725524067E-03
 cg2d: Sum(rhs),rhsMax =  -2.86495132358509E+00  3.00154118721816E-03
 cg2d: Sum(rhs),rhsMax =  -2.94238811535275E+00  3.02377926458712E-03
 cg2d: Sum(rhs),rhsMax =  -2.84207310914252E+00  3.04217211871227E-03
 cg2d: Sum(rhs),rhsMax =  -2.51902173999463E+00  3.13830810331040E-03
 cg2d: Sum(rhs),rhsMax =  -2.14123728923347E+00  3.18959329001124E-03
 cg2d: Sum(rhs),rhsMax =  -1.76835918171727E+00  3.18714938130610E-03
 cg2d: Sum(rhs),rhsMax =  -1.45590349239351E+00  3.13272235215448E-03
 cg2d: Sum(rhs),rhsMax =  -1.25508070679536E+00  3.03818423497008E-03
 cg2d: Sum(rhs),rhsMax =  -1.20874903796768E+00  2.92305998499720E-03
 cg2d: Sum(rhs),rhsMax =  -1.34034310249524E+00  2.81059312926709E-03
 cg2d: Sum(rhs),rhsMax =  -1.62624333572602E+00  2.74190572512227E-03
(PID.TID 0000.0001) Did not write pickup because writePickupAtEnd = FALSE
 --> objf_test(bi,bj)   =  0.509071983152971D-01
 --> objf_tracer(bi,bj) =  0.000000000000000D+00
 --> objf_atl(bi,bj)    =  0.000000000000000D+00
  local fc =  0.509071983152971D-01
 global fc =  0.509071983152971D-01
 ph-check fcpertplus =   5.09071983152970670E-002
 ph-check fcpertminus =   5.09071982061511247E-002
(PID.TID 0000.0001) INI_CG2D: CG2D normalisation factor =  1.9999999999999996E-04
(PID.TID 0000.0001) 
                     ctrl_depth_ini: ctrl update R_low,
                                     adding the control vector.
(PID.TID 0000.0001) Start initial hydrostatic pressure computation
(PID.TID 0000.0001) Pressure is predetermined for buoyancyRelation OCEANIC
(PID.TID 0000.0001) 
(PID.TID 0000.0001) // =======================================================
(PID.TID 0000.0001) // Model current state
(PID.TID 0000.0001) // =======================================================
(PID.TID 0000.0001) 
(PID.TID 0000.0001) SOLVE_FOR_PRESSURE: putPmEinXvector =    F
 cg2d: Sum(rhs),rhsMax =   0.00000000000000E+00  0.00000000000000E+00
 cg2d: Sum(rhs),rhsMax =  -2.49999999999995E+01  6.03492218443701E-05
 cg2d: Sum(rhs),rhsMax =  -1.81034404639062E+01  2.18766023587219E-04
 cg2d: Sum(rhs),rhsMax =  -1.54955562832147E+01  4.32479836297448E-04
 cg2d: Sum(rhs),rhsMax =  -1.41111452330706E+01  6.49958988317817E-04
 cg2d: Sum(rhs),rhsMax =  -1.31144322332850E+01  8.30737102826652E-04
 cg2d: Sum(rhs),rhsMax =  -1.21209090323683E+01  9.52510661978012E-04
 cg2d: Sum(rhs),rhsMax =  -1.07124742370646E+01  1.02806631164448E-03
 cg2d: Sum(rhs),rhsMax =  -7.41375936661513E+00  1.27086596334587E-03
 cg2d: Sum(rhs),rhsMax =  -4.70217533450138E+00  1.51019014095327E-03
 cg2d: Sum(rhs),rhsMax =  -2.72440685923903E+00  1.65833738312908E-03
 cg2d: Sum(rhs),rhsMax =  -1.27958669046898E+00  1.70565508831628E-03
 cg2d: Sum(rhs),rhsMax =  -3.29564699206152E-01  1.66071960621416E-03
 cg2d: Sum(rhs),rhsMax =   5.21320405418888E-02  1.54812756170748E-03
 cg2d: Sum(rhs),rhsMax =  -2.86625374588195E-01  1.40338816108879E-03
 cg2d: Sum(rhs),rhsMax =  -1.30315843278980E+00  1.44268599819196E-03
 cg2d: Sum(rhs),rhsMax =  -2.68067689970166E+00  1.50836886835804E-03
 cg2d: Sum(rhs),rhsMax =  -4.07407452661691E+00  1.58424367200634E-03
 cg2d: Sum(rhs),rhsMax =  -5.18272346869742E+00  1.66593593240923E-03
 cg2d: Sum(rhs),rhsMax =  -5.80990596853077E+00  1.74846175810202E-03
 cg2d: Sum(rhs),rhsMax =  -5.87740626012598E+00  1.82725971698010E-03
 cg2d: Sum(rhs),rhsMax =  -5.41358309916506E+00  1.89900435216108E-03
 cg2d: Sum(rhs),rhsMax =  -4.53080675602735E+00  1.96213935084306E-03
 cg2d: Sum(rhs),rhsMax =  -3.22587899082299E+00  2.12611202652724E-03
 cg2d: Sum(rhs),rhsMax =  -2.04447212032476E+00  2.24837953794405E-03
 cg2d: Sum(rhs),rhsMax =  -1.10818137433120E+00  2.30404049192538E-03
 cg2d: Sum(rhs),rhsMax =  -4.90484882079368E-01  2.29576532429709E-03
 cg2d: Sum(rhs),rhsMax =  -2.61247065734271E-01  2.23814842173262E-03
 cg2d: Sum(rhs),rhsMax =  -4.50921969707050E-01  2.26266907375192E-03
 cg2d: Sum(rhs),rhsMax =  -1.00469610627418E+00  2.31946123477947E-03
 cg2d: Sum(rhs),rhsMax =  -1.78565331245250E+00  2.37599942050288E-03
 cg2d: Sum(rhs),rhsMax =  -2.62429308449559E+00  2.42805543920990E-03
 cg2d: Sum(rhs),rhsMax =  -3.35748486101447E+00  2.47123045590973E-03
 cg2d: Sum(rhs),rhsMax =  -3.85508917062256E+00  2.50195598935018E-03
 cg2d: Sum(rhs),rhsMax =  -4.03589977310999E+00  2.51830323178253E-03
 cg2d: Sum(rhs),rhsMax =  -3.87512847245175E+00  2.52047519761972E-03
 cg2d: Sum(rhs),rhsMax =  -3.40600367966679E+00  2.51092922450533E-03
 cg2d: Sum(rhs),rhsMax =  -2.61682444034241E+00  2.58874086805899E-03
 cg2d: Sum(rhs),rhsMax =  -1.83238712749355E+00  2.61669729406244E-03
 cg2d: Sum(rhs),rhsMax =  -1.17513338620415E+00  2.56005945611512E-03
 cg2d: Sum(rhs),rhsMax =  -7.11994621015831E-01  2.47855829857074E-03
 cg2d: Sum(rhs),rhsMax =  -5.26422152342703E-01  2.47042093182335E-03
 cg2d: Sum(rhs),rhsMax =  -6.78930216034808E-01  2.49676870945903E-03
 cg2d: Sum(rhs),rhsMax =  -1.12673722172904E+00  2.53652612059698E-03
 cg2d: Sum(rhs),rhsMax =  -1.75981625514285E+00  2.58504764451248E-03
 cg2d: Sum(rhs),rhsMax =  -2.43940635904478E+00  2.63568090860244E-03
 cg2d: Sum(rhs),rhsMax =  -3.03203009504020E+00  2.68092814417032E-03
 cg2d: Sum(rhs),rhsMax =  -3.40991312054112E+00  2.73286304261553E-03
 cg2d: Sum(rhs),rhsMax =  -3.48046023658434E+00  2.80943922541816E-03
 cg2d: Sum(rhs),rhsMax =  -3.32063073718783E+00  2.84054008622817E-03
 cg2d: Sum(rhs),rhsMax =  -2.96079448341224E+00  2.82589057371665E-03
 cg2d: Sum(rhs),rhsMax =  -2.32992812035881E+00  2.92147974100611E-03
 cg2d: Sum(rhs),rhsMax =  -1.72242456843276E+00  2.94384962207010E-03
 cg2d: Sum(rhs),rhsMax =  -1.21221904068657E+00  2.89157779129791E-03
 cg2d: Sum(rhs),rhsMax =  -8.69698396955637E-01  2.78046456673438E-03
 cg2d: Sum(rhs),rhsMax =  -7.64867806775162E-01  2.63730949202330E-03
 cg2d: Sum(rhs),rhsMax =  -9.31747848481870E-01  2.54529702547570E-03
 cg2d: Sum(rhs),rhsMax =  -1.31074338813681E+00  2.59464767867824E-03
 cg2d: Sum(rhs),rhsMax =  -1.82960843190074E+00  2.67470087538321E-03
 cg2d: Sum(rhs),rhsMax =  -2.36415409363706E+00  2.77096211534431E-03
 cg2d: Sum(rhs),rhsMax =  -2.80794779778950E+00  2.86583705355801E-03
 cg2d: Sum(rhs),rhsMax =  -3.09076538409426E+00  2.94225353296959E-03
 cg2d: Sum(rhs),rhsMax =  -3.17911024434830E+00  2.98708405986656E-03
 cg2d: Sum(rhs),rhsMax =  -3.06968981327670E+00  2.99369700684183E-03
 cg2d: Sum(rhs),rhsMax =  -2.74200031943743E+00  3.00868114294442E-03
 cg2d: Sum(rhs),rhsMax =  -2.22987019299307E+00  3.08320494716707E-03
 cg2d: Sum(rhs),rhsMax =  -1.72892384767212E+00  3.09216600732980E-03
 cg2d: Sum(rhs),rhsMax =  -1.30661126365775E+00  3.03707922272022E-03
 cg2d: Sum(rhs),rhsMax =  -1.02724587552524E+00  2.93201252848070E-03
 cg2d: Sum(rhs),rhsMax =  -9.49612081074720E-01  2.80059566550767E-03
 cg2d: Sum(rhs),rhsMax =  -1.10546680804076E+00  2.68802010979600E-03
 cg2d: Sum(rhs),rhsMax =  -1.41911845152186E+00  2.73183503007305E-03
 cg2d: Sum(rhs),rhsMax =  -1.85263651746792E+00  2.80075123147580E-03
 cg2d: Sum(rhs),rhsMax =  -2.30607104908921E+00  2.88121983386961E-03
 cg2d: Sum(rhs),rhsMax =  -2.69038332903727E+00  2.95745897492647E-03
 cg2d: Sum(rhs),rhsMax =  -2.94313285107147E+00  3.01465308343059E-03
 cg2d: Sum(rhs),rhsMax =  -3.03123924094444E+00  3.04190024364204E-03
 cg2d: Sum(rhs),rhsMax =  -2.94785322440471E+00  3.03433138453773E-03
 cg2d: Sum(rhs),rhsMax =  -2.61356656380055E+00  3.10365975183277E-03
 cg2d: Sum(rhs),rhsMax =  -2.18161317924693E+00  3.16115502019013E-03
 cg2d: Sum(rhs),rhsMax =  -1.75526123633133E+00  3.15966310409025E-03
 cg2d: Sum(rhs),rhsMax =  -1.39603742635837E+00  3.10114909089970E-03
 cg2d: Sum(rhs),rhsMax =  -1.16177138789978E+00  2.99876542260125E-03
 cg2d: Sum(rhs),rhsMax =  -1.10293745638007E+00  2.87411079975332E-03
 cg2d: Sum(rhs),rhsMax =  -1.24975132631153E+00  2.75286351130848E-03
 cg2d: Sum(rhs),rhsMax =  -1.53840866821861E+00  2.75098214589384E-03
 cg2d: Sum(rhs),rhsMax =  -1.91301870605777E+00  2.81271667083434E-03
 cg2d: Sum(rhs),rhsMax =  -2.30705939209080E+00  2.88449379048811E-03
 cg2d: Sum(rhs),rhsMax =  -2.64297552483889E+00  2.95188723312264E-03
 cg2d: Sum(rhs),rhsMax =  -2.86495129154210E+00  3.00154116181838E-03
 cg2d: Sum(rhs),rhsMax =  -2.94238808553214E+00  3.02377923571056E-03
 cg2d: Sum(rhs),rhsMax =  -2.84207313392781E+00  3.04217202839573E-03
 cg2d: Sum(rhs),rhsMax =  -2.51902175408314E+00  3.13830801138050E-03
 cg2d: Sum(rhs),rhsMax =  -2.14123729147276E+00  3.18959319637772E-03
 cg2d: Sum(rhs),rhsMax =  -1.76835917214204E+00  3.18714928587892E-03
 cg2d: Sum(rhs),rhsMax =  -1.45590347212455E+00  3.13272225486132E-03
 cg2d: Sum(rhs),rhsMax =  -1.25508067831486E+00  3.03818413577007E-03
 cg2d: Sum(rhs),rhsMax =  -1.20874900554936E+00  2.92305988388809E-03
 cg2d: Sum(rhs),rhsMax =  -1.34034307225732E+00  2.81059302628481E-03
 cg2d: Sum(rhs),rhsMax =  -1.62624326318961E+00  2.74190570649286E-03
(PID.TID 0000.0001) Did not write pickup because writePickupAtEnd = FALSE
 --> objf_test(bi,bj)   =  0.509071980970052D-01
 --> objf_tracer(bi,bj) =  0.000000000000000D+00
 --> objf_atl(bi,bj)    =  0.000000000000000D+00
  local fc =  0.509071980970052D-01
 global fc =  0.509071980970052D-01
grad-res -------------------------------
 grad-res     0    4    5    2    1    1    1    1   5.09071982062E-02  5.09071983153E-02  5.09071980970E-02
 grad-res     0    4    4   10    0    1    1    1   1.09131876718E-06  1.09145945754E-06 -1.28917749718E-04
(PID.TID 0000.0001)  ADM  ref_cost_function      =  5.09071982061511E-02
(PID.TID 0000.0001)  ADM  adjoint_gradient       =  1.09131876717650E-06
(PID.TID 0000.0001)  ADM  finite-diff_grad       =  1.09145945753619E-06
 ph-grd  ierr ---------------------------
 ph-grd  ierr =            0 , icomp =           10 , ichknum =            4
 ph-test icomp, ncvarcomp, ichknum           13          25           5
 ph-grd _loc: bi, bj, icomptest, ichknum            1           1          10           5
 ph-grd -->hit<--            3           3           1           1
(PID.TID 0000.0001) INI_CG2D: CG2D normalisation factor =  1.9999999999999996E-04
(PID.TID 0000.0001) 
                     ctrl_depth_ini: ctrl update R_low,
                                     adding the control vector.
(PID.TID 0000.0001) Start initial hydrostatic pressure computation
(PID.TID 0000.0001) Pressure is predetermined for buoyancyRelation OCEANIC
(PID.TID 0000.0001) 
(PID.TID 0000.0001) // =======================================================
(PID.TID 0000.0001) // Model current state
(PID.TID 0000.0001) // =======================================================
(PID.TID 0000.0001) 
(PID.TID 0000.0001) SOLVE_FOR_PRESSURE: putPmEinXvector =    F
 cg2d: Sum(rhs),rhsMax =   0.00000000000000E+00  0.00000000000000E+00
 cg2d: Sum(rhs),rhsMax =  -2.49999999999995E+01  6.03492218443701E-05
 cg2d: Sum(rhs),rhsMax =  -1.81034404639062E+01  2.18766023587219E-04
 cg2d: Sum(rhs),rhsMax =  -1.54955562832147E+01  4.32479836297448E-04
 cg2d: Sum(rhs),rhsMax =  -1.41111452323675E+01  6.49958988350287E-04
 cg2d: Sum(rhs),rhsMax =  -1.31144322329645E+01  8.30737102848088E-04
 cg2d: Sum(rhs),rhsMax =  -1.21209090323043E+01  9.52510661986389E-04
 cg2d: Sum(rhs),rhsMax =  -1.07124742371723E+01  1.02806631164034E-03
 cg2d: Sum(rhs),rhsMax =  -7.41375936671752E+00  1.27086596333818E-03
 cg2d: Sum(rhs),rhsMax =  -4.70217533428722E+00  1.51019014102974E-03
 cg2d: Sum(rhs),rhsMax =  -2.72440685883757E+00  1.65833738334853E-03
 cg2d: Sum(rhs),rhsMax =  -1.27958669001707E+00  1.70565508871971E-03
 cg2d: Sum(rhs),rhsMax =  -3.29564698771771E-01  1.66071960680879E-03
 cg2d: Sum(rhs),rhsMax =   5.21320410749176E-02  1.54812756244970E-03
 cg2d: Sum(rhs),rhsMax =  -2.86625373546798E-01  1.40338816187822E-03
 cg2d: Sum(rhs),rhsMax =  -1.30315843245364E+00  1.44268599734382E-03
 cg2d: Sum(rhs),rhsMax =  -2.68067690187786E+00  1.50836886643477E-03
 cg2d: Sum(rhs),rhsMax =  -4.07407453359602E+00  1.58424366879369E-03
 cg2d: Sum(rhs),rhsMax =  -5.18272348182710E+00  1.66593592779727E-03
 cg2d: Sum(rhs),rhsMax =  -5.80990598739448E+00  1.74846175210632E-03
 cg2d: Sum(rhs),rhsMax =  -5.87740628257847E+00  1.82725970974174E-03
 cg2d: Sum(rhs),rhsMax =  -5.41358312208341E+00  1.89900434392442E-03
 cg2d: Sum(rhs),rhsMax =  -4.53080677635041E+00  1.96213934191474E-03
 cg2d: Sum(rhs),rhsMax =  -3.22587899766326E+00  2.12611202198114E-03
 cg2d: Sum(rhs),rhsMax =  -2.04447212477989E+00  2.24837953314939E-03
 cg2d: Sum(rhs),rhsMax =  -1.10818137679037E+00  2.30404048714675E-03
 cg2d: Sum(rhs),rhsMax =  -4.90484883183876E-01  2.29576531976759E-03
 cg2d: Sum(rhs),rhsMax =  -2.61247066237219E-01  2.23814841761679E-03
 cg2d: Sum(rhs),rhsMax =  -4.50921971390408E-01  2.26266906447142E-03
 cg2d: Sum(rhs),rhsMax =  -1.00469611008369E+00  2.31946122510165E-03
 cg2d: Sum(rhs),rhsMax =  -1.78565331966013E+00  2.37599941013657E-03
 cg2d: Sum(rhs),rhsMax =  -2.62429309599968E+00  2.42805542789231E-03
 cg2d: Sum(rhs),rhsMax =  -3.35748487714857E+00  2.47123044345410E-03
 cg2d: Sum(rhs),rhsMax =  -3.85508919094133E+00  2.50195597567805E-03
 cg2d: Sum(rhs),rhsMax =  -4.03589979630165E+00  2.51830321693475E-03
 cg2d: Sum(rhs),rhsMax =  -3.87512849648943E+00  2.52047518174491E-03
 cg2d: Sum(rhs),rhsMax =  -3.40600370221852E+00  2.51092920782906E-03
 cg2d: Sum(rhs),rhsMax =  -2.61682443347621E+00  2.58874087509947E-03
 cg2d: Sum(rhs),rhsMax =  -1.83238712282520E+00  2.61669730150721E-03
 cg2d: Sum(rhs),rhsMax =  -1.17513338336696E+00  2.56005946404670E-03
 cg2d: Sum(rhs),rhsMax =  -7.11994623662441E-01  2.47855829282875E-03
 cg2d: Sum(rhs),rhsMax =  -5.26422157167342E-01  2.47042091419849E-03
 cg2d: Sum(rhs),rhsMax =  -6.78930221881583E-01  2.49676869176641E-03
 cg2d: Sum(rhs),rhsMax =  -1.12673723061262E+00  2.53652610270501E-03
 cg2d: Sum(rhs),rhsMax =  -1.75981626837740E+00  2.58504762626808E-03
 cg2d: Sum(rhs),rhsMax =  -2.43940637710236E+00  2.63568088986934E-03
 cg2d: Sum(rhs),rhsMax =  -3.03203011757186E+00  2.68092812486082E-03
 cg2d: Sum(rhs),rhsMax =  -3.40991311971014E+00  2.73286304389088E-03
 cg2d: Sum(rhs),rhsMax =  -3.48046023336431E+00  2.80943922876384E-03
 cg2d: Sum(rhs),rhsMax =  -3.32063073180949E+00  2.84054009185721E-03
 cg2d: Sum(rhs),rhsMax =  -2.96079447691004E+00  2.82589058143406E-03
 cg2d: Sum(rhs),rhsMax =  -2.32992811038505E+00  2.92147975595445E-03
 cg2d: Sum(rhs),rhsMax =  -1.72242456161938E+00  2.94384963775063E-03
 cg2d: Sum(rhs),rhsMax =  -1.21221903660104E+00  2.89157780776528E-03
 cg2d: Sum(rhs),rhsMax =  -8.69698394854553E-01  2.78046458402558E-03
 cg2d: Sum(rhs),rhsMax =  -7.64867805326232E-01  2.63730951015267E-03
 cg2d: Sum(rhs),rhsMax =  -9.31747849962592E-01  2.54529703290782E-03
 cg2d: Sum(rhs),rhsMax =  -1.31074338907274E+00  2.59464768535949E-03
 cg2d: Sum(rhs),rhsMax =  -1.82960843180322E+00  2.67470088186773E-03
 cg2d: Sum(rhs),rhsMax =  -2.36415409203797E+00  2.77096212231506E-03
 cg2d: Sum(rhs),rhsMax =  -2.80794779424638E+00  2.86583706167088E-03
 cg2d: Sum(rhs),rhsMax =  -3.09076537842745E+00  2.94225354270623E-03
 cg2d: Sum(rhs),rhsMax =  -3.17911023689163E+00  2.98708407142753E-03
 cg2d: Sum(rhs),rhsMax =  -3.06968980496059E+00  2.99369702010229E-03
 cg2d: Sum(rhs),rhsMax =  -2.74200030226055E+00  3.00868116812642E-03
 cg2d: Sum(rhs),rhsMax =  -2.22987018027979E+00  3.08320497330326E-03
 cg2d: Sum(rhs),rhsMax =  -1.72892383923231E+00  3.09216603448539E-03
 cg2d: Sum(rhs),rhsMax =  -1.30661125895163E+00  3.03707925094114E-03
 cg2d: Sum(rhs),rhsMax =  -1.02724587350742E+00  2.93201255778572E-03
 cg2d: Sum(rhs),rhsMax =  -9.49612079924142E-01  2.80059569588592E-03
 cg2d: Sum(rhs),rhsMax =  -1.10546681339450E+00  2.68802012110388E-03
 cg2d: Sum(rhs),rhsMax =  -1.41911845611211E+00  2.73183504098493E-03
 cg2d: Sum(rhs),rhsMax =  -1.85263652043508E+00  2.80075124269738E-03
 cg2d: Sum(rhs),rhsMax =  -2.30607104975203E+00  2.88121984614111E-03
 cg2d: Sum(rhs),rhsMax =  -2.69038332698684E+00  2.95745898886828E-03
 cg2d: Sum(rhs),rhsMax =  -2.94313284637674E+00  3.01465309941195E-03
 cg2d: Sum(rhs),rhsMax =  -3.03123923431167E+00  3.04190026169991E-03
 cg2d: Sum(rhs),rhsMax =  -2.94785321716727E+00  3.03433140436263E-03
 cg2d: Sum(rhs),rhsMax =  -2.61356654373020E+00  3.10365979043334E-03
 cg2d: Sum(rhs),rhsMax =  -2.18161316479003E+00  3.16115505985103E-03
 cg2d: Sum(rhs),rhsMax =  -1.75526122730494E+00  3.15966314487981E-03
 cg2d: Sum(rhs),rhsMax =  -1.39603742205954E+00  3.10114913286511E-03
 cg2d: Sum(rhs),rhsMax =  -1.16177138694696E+00  2.99876546576004E-03
 cg2d: Sum(rhs),rhsMax =  -1.10293745645763E+00  2.87411084409086E-03
 cg2d: Sum(rhs),rhsMax =  -1.24975132411399E+00  2.75286355678155E-03
 cg2d: Sum(rhs),rhsMax =  -1.53840867887657E+00  2.75098216082986E-03
 cg2d: Sum(rhs),rhsMax =  -1.91301871495593E+00  2.81271668585100E-03
 cg2d: Sum(rhs),rhsMax =  -2.30705939854269E+00  2.88449380636980E-03
 cg2d: Sum(rhs),rhsMax =  -2.64297552852592E+00  2.95188725052549E-03
 cg2d: Sum(rhs),rhsMax =  -2.86495129265954E+00  3.00154118114201E-03
 cg2d: Sum(rhs),rhsMax =  -2.94238808490140E+00  3.02377925702138E-03
 cg2d: Sum(rhs),rhsMax =  -2.84207310597621E+00  3.04217208052423E-03
 cg2d: Sum(rhs),rhsMax =  -2.51902173234307E+00  3.13830806451938E-03
 cg2d: Sum(rhs),rhsMax =  -2.14123727647209E+00  3.18959325059562E-03
 cg2d: Sum(rhs),rhsMax =  -1.76835916366191E+00  3.18714934123685E-03
 cg2d: Sum(rhs),rhsMax =  -1.45590346927296E+00  3.13272231140079E-03
 cg2d: Sum(rhs),rhsMax =  -1.25508067938674E+00  3.03818419350523E-03
 cg2d: Sum(rhs),rhsMax =  -1.20874900781256E+00  2.92305994280352E-03
 cg2d: Sum(rhs),rhsMax =  -1.34034307198063E+00  2.81059308633915E-03
 cg2d: Sum(rhs),rhsMax =  -1.62624328212235E+00  2.74190572464047E-03
(PID.TID 0000.0001) Did not write pickup because writePickupAtEnd = FALSE
 --> objf_test(bi,bj)   =  0.509071985072852D-01
 --> objf_tracer(bi,bj) =  0.000000000000000D+00
 --> objf_atl(bi,bj)    =  0.000000000000000D+00
  local fc =  0.509071985072852D-01
 global fc =  0.509071985072852D-01
 ph-check fcpertplus =   5.09071985072851521E-002
 ph-check fcpertminus =   5.09071982061511247E-002
(PID.TID 0000.0001) INI_CG2D: CG2D normalisation factor =  1.9999999999999996E-04
(PID.TID 0000.0001) 
                     ctrl_depth_ini: ctrl update R_low,
                                     adding the control vector.
(PID.TID 0000.0001) Start initial hydrostatic pressure computation
(PID.TID 0000.0001) Pressure is predetermined for buoyancyRelation OCEANIC
(PID.TID 0000.0001) 
(PID.TID 0000.0001) // =======================================================
(PID.TID 0000.0001) // Model current state
(PID.TID 0000.0001) // =======================================================
(PID.TID 0000.0001) 
(PID.TID 0000.0001) SOLVE_FOR_PRESSURE: putPmEinXvector =    F
 cg2d: Sum(rhs),rhsMax =   0.00000000000000E+00  0.00000000000000E+00
 cg2d: Sum(rhs),rhsMax =  -2.49999999999995E+01  6.03492218443701E-05
 cg2d: Sum(rhs),rhsMax =  -1.81034404639062E+01  2.18766023587219E-04
 cg2d: Sum(rhs),rhsMax =  -1.54955562832147E+01  4.32479836297448E-04
 cg2d: Sum(rhs),rhsMax =  -1.41111452335319E+01  6.49958988296540E-04
 cg2d: Sum(rhs),rhsMax =  -1.31144322335582E+01  8.30737102808679E-04
 cg2d: Sum(rhs),rhsMax =  -1.21209090327731E+01  9.52510661944207E-04
 cg2d: Sum(rhs),rhsMax =  -1.07124742372414E+01  1.02806631162381E-03
 cg2d: Sum(rhs),rhsMax =  -7.41375936659666E+00  1.27086596334325E-03
 cg2d: Sum(rhs),rhsMax =  -4.70217533482095E+00  1.51019014084644E-03
 cg2d: Sum(rhs),rhsMax =  -2.72440685972092E+00  1.65833738285167E-03
 cg2d: Sum(rhs),rhsMax =  -1.27958669092909E+00  1.70565508782299E-03
 cg2d: Sum(rhs),rhsMax =  -3.29564699533346E-01  1.66071960549901E-03
 cg2d: Sum(rhs),rhsMax =   5.21320402558842E-02  1.54812756082294E-03
 cg2d: Sum(rhs),rhsMax =  -2.86625375254311E-01  1.40338816015289E-03
 cg2d: Sum(rhs),rhsMax =  -1.30315843495009E+00  1.44268599641354E-03
 cg2d: Sum(rhs),rhsMax =  -2.68067690411066E+00  1.50836886619034E-03
 cg2d: Sum(rhs),rhsMax =  -4.07407453343485E+00  1.58424366953769E-03
 cg2d: Sum(rhs),rhsMax =  -5.18272347715153E+00  1.66593592978437E-03
 cg2d: Sum(rhs),rhsMax =  -5.80990597716699E+00  1.74846175550925E-03
 cg2d: Sum(rhs),rhsMax =  -5.87740626737280E+00  1.82725971462942E-03
 cg2d: Sum(rhs),rhsMax =  -5.41358310390231E+00  1.89900435025717E-03
 cg2d: Sum(rhs),rhsMax =  -4.53080675792069E+00  1.96213934955710E-03
 cg2d: Sum(rhs),rhsMax =  -3.22587898050655E+00  2.12611203242803E-03
 cg2d: Sum(rhs),rhsMax =  -2.04447211288495E+00  2.24837954436836E-03
 cg2d: Sum(rhs),rhsMax =  -1.10818136932821E+00  2.30404049860284E-03
 cg2d: Sum(rhs),rhsMax =  -4.90484878708888E-01  2.29576533098634E-03
 cg2d: Sum(rhs),rhsMax =  -2.61247062929832E-01  2.23814842826239E-03
 cg2d: Sum(rhs),rhsMax =  -4.50921967252817E-01  2.26266907609881E-03
 cg2d: Sum(rhs),rhsMax =  -1.00469610335709E+00  2.31946123724609E-03
 cg2d: Sum(rhs),rhsMax =  -1.78565330891508E+00  2.37599942295117E-03
 cg2d: Sum(rhs),rhsMax =  -2.62429308038356E+00  2.42805544155754E-03
 cg2d: Sum(rhs),rhsMax =  -3.35748485646832E+00  2.47123045814083E-03
 cg2d: Sum(rhs),rhsMax =  -3.85508916574731E+00  2.50195599151428E-03
 cg2d: Sum(rhs),rhsMax =  -4.03589976792440E+00  2.51830323398261E-03
 cg2d: Sum(rhs),rhsMax =  -3.87512846694159E+00  2.52047519999171E-03
 cg2d: Sum(rhs),rhsMax =  -3.40600367389364E+00  2.51092922719342E-03
 cg2d: Sum(rhs),rhsMax =  -2.61682443279375E+00  2.58874087322911E-03
 cg2d: Sum(rhs),rhsMax =  -1.83238712118631E+00  2.61669729947036E-03
 cg2d: Sum(rhs),rhsMax =  -1.17513338083128E+00  2.56005946188704E-03
 cg2d: Sum(rhs),rhsMax =  -7.11994614328484E-01  2.47855831194786E-03
 cg2d: Sum(rhs),rhsMax =  -5.26422148471678E-01  2.47042093711935E-03
 cg2d: Sum(rhs),rhsMax =  -6.78930212027450E-01  2.49676871515240E-03
 cg2d: Sum(rhs),rhsMax =  -1.12673721703019E+00  2.53652612656877E-03
 cg2d: Sum(rhs),rhsMax =  -1.75981624941760E+00  2.58504765064211E-03
 cg2d: Sum(rhs),rhsMax =  -2.43940635229110E+00  2.63568091478309E-03
 cg2d: Sum(rhs),rhsMax =  -3.03203008754757E+00  2.68092815031974E-03
 cg2d: Sum(rhs),rhsMax =  -3.40991311736791E+00  2.73286304507873E-03
 cg2d: Sum(rhs),rhsMax =  -3.48046023135209E+00  2.80943922984764E-03
 cg2d: Sum(rhs),rhsMax =  -3.32063072995004E+00  2.84054009287388E-03
 cg2d: Sum(rhs),rhsMax =  -2.96079447505721E+00  2.82589058241312E-03
 cg2d: Sum(rhs),rhsMax =  -2.32992811171805E+00  2.92147975299438E-03
 cg2d: Sum(rhs),rhsMax =  -1.72242456229813E+00  2.94384963445566E-03
 cg2d: Sum(rhs),rhsMax =  -1.21221903669412E+00  2.89157780413897E-03
 cg2d: Sum(rhs),rhsMax =  -8.69698394590575E-01  2.78046458009696E-03
 cg2d: Sum(rhs),rhsMax =  -7.64867805166381E-01  2.63730950597023E-03
 cg2d: Sum(rhs),rhsMax =  -9.31747848877801E-01  2.54529703318403E-03
 cg2d: Sum(rhs),rhsMax =  -1.31074338875873E+00  2.59464768531811E-03
 cg2d: Sum(rhs),rhsMax =  -1.82960843249774E+00  2.67470088146844E-03
 cg2d: Sum(rhs),rhsMax =  -2.36415409387827E+00  2.77096212154155E-03
 cg2d: Sum(rhs),rhsMax =  -2.80794779722343E+00  2.86583706053138E-03
 cg2d: Sum(rhs),rhsMax =  -3.09076538239559E+00  2.94225354122907E-03
 cg2d: Sum(rhs),rhsMax =  -3.17911024161583E+00  2.98708406965264E-03
 cg2d: Sum(rhs),rhsMax =  -3.06968981017317E+00  2.99369701807032E-03
 cg2d: Sum(rhs),rhsMax =  -2.74200031050731E+00  3.00868116267413E-03
 cg2d: Sum(rhs),rhsMax =  -2.22987018773995E+00  3.08320496751590E-03
 cg2d: Sum(rhs),rhsMax =  -1.72892384600284E+00  3.09216602831810E-03
 cg2d: Sum(rhs),rhsMax =  -1.30661126527179E+00  3.03707924437208E-03
 cg2d: Sum(rhs),rhsMax =  -1.02724587980464E+00  2.93201255081844E-03
 cg2d: Sum(rhs),rhsMax =  -9.49612086871086E-01  2.80059568854699E-03
 cg2d: Sum(rhs),rhsMax =  -1.10546682038008E+00  2.68802011695507E-03
 cg2d: Sum(rhs),rhsMax =  -1.41911846452227E+00  2.73183503632458E-03
 cg2d: Sum(rhs),rhsMax =  -1.85263653060812E+00  2.80075123749480E-03
 cg2d: Sum(rhs),rhsMax =  -2.30607106180296E+00  2.88121984039280E-03
 cg2d: Sum(rhs),rhsMax =  -2.69038334079872E+00  2.95745898259769E-03
 cg2d: Sum(rhs),rhsMax =  -2.94313286165509E+00  3.01465309266393E-03
 cg2d: Sum(rhs),rhsMax =  -3.03123925066049E+00  3.04190025453078E-03
 cg2d: Sum(rhs),rhsMax =  -2.94785323415809E+00  3.03433139682817E-03
 cg2d: Sum(rhs),rhsMax =  -2.61356656153171E+00  3.10365978088510E-03
 cg2d: Sum(rhs),rhsMax =  -2.18161318143650E+00  3.16115504993783E-03
 cg2d: Sum(rhs),rhsMax =  -1.75526124305187E+00  3.15966313456497E-03
 cg2d: Sum(rhs),rhsMax =  -1.39603743736460E+00  3.10114912213033E-03
 cg2d: Sum(rhs),rhsMax =  -1.16177140249473E+00  2.99876545460819E-03
 cg2d: Sum(rhs),rhsMax =  -1.10293747318693E+00  2.87411083254421E-03
 cg2d: Sum(rhs),rhsMax =  -1.24975134315676E+00  2.75286354487615E-03
 cg2d: Sum(rhs),rhsMax =  -1.53840869953537E+00  2.75098215001170E-03
 cg2d: Sum(rhs),rhsMax =  -1.91301873807419E+00  2.81271667440433E-03
 cg2d: Sum(rhs),rhsMax =  -2.30705942420112E+00  2.88449379429031E-03
 cg2d: Sum(rhs),rhsMax =  -2.64297555648774E+00  2.95188723783784E-03
 cg2d: Sum(rhs),rhsMax =  -2.86495132246770E+00  3.00154116789454E-03
 cg2d: Sum(rhs),rhsMax =  -2.94238811598353E+00  3.02377924327631E-03
 cg2d: Sum(rhs),rhsMax =  -2.84207313709419E+00  3.04217206658376E-03
 cg2d: Sum(rhs),rhsMax =  -2.51902176173475E+00  3.13830805017153E-03
 cg2d: Sum(rhs),rhsMax =  -2.14123730423421E+00  3.18959323579334E-03
 cg2d: Sum(rhs),rhsMax =  -1.76835919019745E+00  3.18714932594819E-03
 cg2d: Sum(rhs),rhsMax =  -1.45590349524515E+00  3.13272229561503E-03
 cg2d: Sum(rhs),rhsMax =  -1.25508070572353E+00  3.03818417723493E-03
 cg2d: Sum(rhs),rhsMax =  -1.20874903570453E+00  2.92305992608178E-03
 cg2d: Sum(rhs),rhsMax =  -1.34034310277199E+00  2.81059306921276E-03
 cg2d: Sum(rhs),rhsMax =  -1.62624331679333E+00  2.74190570697466E-03
(PID.TID 0000.0001) Did not write pickup because writePickupAtEnd = FALSE
 --> objf_test(bi,bj)   =  0.509071979050171D-01
 --> objf_tracer(bi,bj) =  0.000000000000000D+00
 --> objf_atl(bi,bj)    =  0.000000000000000D+00
  local fc =  0.509071979050171D-01
 global fc =  0.509071979050171D-01
grad-res -------------------------------
 grad-res     0    5    3    3    1    1    1    1   5.09071982062E-02  5.09071985073E-02  5.09071979050E-02
 grad-res     0    5    5   13    0    1    1    1   3.01401769750E-06  3.01134006619E-06  8.88392694523E-04
(PID.TID 0000.0001)  ADM  ref_cost_function      =  5.09071982061511E-02
(PID.TID 0000.0001)  ADM  adjoint_gradient       =  3.01401769749825E-06
(PID.TID 0000.0001)  ADM  finite-diff_grad       =  3.01134006619463E-06
 ph-grd  ierr ---------------------------
 ph-grd  ierr =            0 , icomp =           13 , ichknum =            5
 ph-test icomp, ncvarcomp, ichknum           16          25           6
 ph-grd _loc: bi, bj, icomptest, ichknum            1           1          13           6
 ph-grd -->hit<--            1           4           1           1
(PID.TID 0000.0001) INI_CG2D: CG2D normalisation factor =  1.9999999999999996E-04
(PID.TID 0000.0001) 
                     ctrl_depth_ini: ctrl update R_low,
                                     adding the control vector.
(PID.TID 0000.0001) Start initial hydrostatic pressure computation
(PID.TID 0000.0001) Pressure is predetermined for buoyancyRelation OCEANIC
(PID.TID 0000.0001) 
(PID.TID 0000.0001) // =======================================================
(PID.TID 0000.0001) // Model current state
(PID.TID 0000.0001) // =======================================================
(PID.TID 0000.0001) 
(PID.TID 0000.0001) SOLVE_FOR_PRESSURE: putPmEinXvector =    F
 cg2d: Sum(rhs),rhsMax =   0.00000000000000E+00  0.00000000000000E+00
 cg2d: Sum(rhs),rhsMax =  -2.49999999999995E+01  6.03492218443701E-05
 cg2d: Sum(rhs),rhsMax =  -1.81034404639062E+01  2.18766023587219E-04
 cg2d: Sum(rhs),rhsMax =  -1.54955562832147E+01  4.32479836297448E-04
 cg2d: Sum(rhs),rhsMax =  -1.41111452328567E+01  6.49958988327626E-04
 cg2d: Sum(rhs),rhsMax =  -1.31144322335797E+01  8.30737102808257E-04
 cg2d: Sum(rhs),rhsMax =  -1.21209090332939E+01  9.52510661906411E-04
 cg2d: Sum(rhs),rhsMax =  -1.07124742371566E+01  1.02806631163799E-03
 cg2d: Sum(rhs),rhsMax =  -7.41375936618051E+00  1.27086596342439E-03
 cg2d: Sum(rhs),rhsMax =  -4.70217533397703E+00  1.51019014112519E-03
 cg2d: Sum(rhs),rhsMax =  -2.72440685878159E+00  1.65833738339816E-03
 cg2d: Sum(rhs),rhsMax =  -1.27958669015959E+00  1.70565508864702E-03
 cg2d: Sum(rhs),rhsMax =  -3.29564699010460E-01  1.66071960652483E-03
 cg2d: Sum(rhs),rhsMax =   5.21320407779771E-02  1.54812756187310E-03
 cg2d: Sum(rhs),rhsMax =  -2.86625374227042E-01  1.40338816095476E-03
 cg2d: Sum(rhs),rhsMax =  -1.30315843358598E+00  1.44268599676142E-03
 cg2d: Sum(rhs),rhsMax =  -2.68067690301609E+00  1.50836886617174E-03
 cg2d: Sum(rhs),rhsMax =  -4.07407453370981E+00  1.58424366901251E-03
 cg2d: Sum(rhs),rhsMax =  -5.18272347982183E+00  1.66593592864133E-03
 cg2d: Sum(rhs),rhsMax =  -5.80990598267072E+00  1.74846175368142E-03
 cg2d: Sum(rhs),rhsMax =  -5.87740627534337E+00  1.82725971210282E-03
 cg2d: Sum(rhs),rhsMax =  -5.41358311330269E+00  1.89900434707045E-03
 cg2d: Sum(rhs),rhsMax =  -4.53080676741349E+00  1.96213934579270E-03
 cg2d: Sum(rhs),rhsMax =  -3.22587899631787E+00  2.12611202278768E-03
 cg2d: Sum(rhs),rhsMax =  -2.04447212316866E+00  2.24837953468941E-03
 cg2d: Sum(rhs),rhsMax =  -1.10818137550238E+00  2.30404048930832E-03
 cg2d: Sum(rhs),rhsMax =  -4.90484882395883E-01  2.29576532237201E-03
 cg2d: Sum(rhs),rhsMax =  -2.61247065748341E-01  2.23814842044641E-03
 cg2d: Sum(rhs),rhsMax =  -4.50921970104560E-01  2.26266907076859E-03
 cg2d: Sum(rhs),rhsMax =  -1.00469610734704E+00  2.31946123169176E-03
 cg2d: Sum(rhs),rhsMax =  -1.78565331468936E+00  2.37599941709241E-03
 cg2d: Sum(rhs),rhsMax =  -2.62429308834339E+00  2.42805543530776E-03
 cg2d: Sum(rhs),rhsMax =  -3.35748486671940E+00  2.47123045142573E-03
 cg2d: Sum(rhs),rhsMax =  -3.85508917804809E+00  2.50195598428705E-03
 cg2d: Sum(rhs),rhsMax =  -4.03589978166571E+00  2.51830322623281E-03
 cg2d: Sum(rhs),rhsMax =  -3.87512848119979E+00  2.52047519174640E-03
 cg2d: Sum(rhs),rhsMax =  -3.40600368758098E+00  2.51092921851064E-03
 cg2d: Sum(rhs),rhsMax =  -2.61682442689307E+00  2.58874088121326E-03
 cg2d: Sum(rhs),rhsMax =  -1.83238711610906E+00  2.61669731016098E-03
 cg2d: Sum(rhs),rhsMax =  -1.17513337777688E+00  2.56005947425059E-03
 cg2d: Sum(rhs),rhsMax =  -7.11994621415329E-01  2.47855829672574E-03
 cg2d: Sum(rhs),rhsMax =  -5.26422153121947E-01  2.47042092727117E-03
 cg2d: Sum(rhs),rhsMax =  -6.78930216929895E-01  2.49676870515217E-03
 cg2d: Sum(rhs),rhsMax =  -1.12673722322208E+00  2.53652611639384E-03
 cg2d: Sum(rhs),rhsMax =  -1.75981625756382E+00  2.58504764026538E-03
 cg2d: Sum(rhs),rhsMax =  -2.43940636257868E+00  2.63568090418642E-03
 cg2d: Sum(rhs),rhsMax =  -3.03203009970025E+00  2.68092813950492E-03
 cg2d: Sum(rhs),rhsMax =  -3.40991310019145E+00  2.73286305840038E-03
 cg2d: Sum(rhs),rhsMax =  -3.48046021319262E+00  2.80943924376267E-03
 cg2d: Sum(rhs),rhsMax =  -3.32063071187859E+00  2.84054010730018E-03
 cg2d: Sum(rhs),rhsMax =  -2.96079445800642E+00  2.82589059730084E-03
 cg2d: Sum(rhs),rhsMax =  -2.32992810158135E+00  2.92147976367356E-03
 cg2d: Sum(rhs),rhsMax =  -1.72242455274450E+00  2.94384964761437E-03
 cg2d: Sum(rhs),rhsMax =  -1.21221902818471E+00  2.89157781912984E-03
 cg2d: Sum(rhs),rhsMax =  -8.69698386808381E-01  2.78046459603732E-03
 cg2d: Sum(rhs),rhsMax =  -7.64867796917419E-01  2.63730952192114E-03
 cg2d: Sum(rhs),rhsMax =  -9.31747837356427E-01  2.54529705201353E-03
 cg2d: Sum(rhs),rhsMax =  -1.31074337319506E+00  2.59464770514279E-03
 cg2d: Sum(rhs),rhsMax =  -1.82960841176181E+00  2.67470090232986E-03
 cg2d: Sum(rhs),rhsMax =  -2.36415406785787E+00  2.77096214343935E-03
 cg2d: Sum(rhs),rhsMax =  -2.80794776663553E+00  2.86583708342843E-03
 cg2d: Sum(rhs),rhsMax =  -3.09076534842658E+00  2.94225356506360E-03
 cg2d: Sum(rhs),rhsMax =  -3.17911020561791E+00  2.98708409435495E-03
 cg2d: Sum(rhs),rhsMax =  -3.06968977348882E+00  2.99369704358056E-03
 cg2d: Sum(rhs),rhsMax =  -2.74200028585949E+00  3.00868117736342E-03
 cg2d: Sum(rhs),rhsMax =  -2.22987016390437E+00  3.08320498423866E-03
 cg2d: Sum(rhs),rhsMax =  -1.72892382317794E+00  3.09216604680752E-03
 cg2d: Sum(rhs),rhsMax =  -1.30661124321517E+00  3.03707926406944E-03
 cg2d: Sum(rhs),rhsMax =  -1.02724585765136E+00  2.93201257099104E-03
 cg2d: Sum(rhs),rhsMax =  -9.49612063122988E-01  2.80059570843991E-03
 cg2d: Sum(rhs),rhsMax =  -1.10546678812816E+00  2.68802014886814E-03
 cg2d: Sum(rhs),rhsMax =  -1.41911842698754E+00  2.73183506942665E-03
 cg2d: Sum(rhs),rhsMax =  -1.85263648651015E+00  2.80075127179986E-03
 cg2d: Sum(rhs),rhsMax =  -2.30607101103475E+00  2.88121987587694E-03
 cg2d: Sum(rhs),rhsMax =  -2.69038328419959E+00  2.95745901920532E-03
 cg2d: Sum(rhs),rhsMax =  -2.94313280060848E+00  3.01465313032048E-03
 cg2d: Sum(rhs),rhsMax =  -3.03123918675676E+00  3.04190029315927E-03
 cg2d: Sum(rhs),rhsMax =  -2.94785316899600E+00  3.03433143636623E-03
 cg2d: Sum(rhs),rhsMax =  -2.61356651719480E+00  3.10365980105511E-03
 cg2d: Sum(rhs),rhsMax =  -2.18161313810805E+00  3.16115507212271E-03
 cg2d: Sum(rhs),rhsMax =  -1.75526120057620E+00  3.15966315841481E-03
 cg2d: Sum(rhs),rhsMax =  -1.39603739508850E+00  3.10114914701630E-03
 cg2d: Sum(rhs),rhsMax =  -1.16177135916644E+00  2.99876547974241E-03
 cg2d: Sum(rhs),rhsMax =  -1.10293742704046E+00  2.87411085713177E-03
 cg2d: Sum(rhs),rhsMax =  -1.24975129232431E+00  2.75286356826931E-03
 cg2d: Sum(rhs),rhsMax =  -1.53840863040734E+00  2.75098219807797E-03
 cg2d: Sum(rhs),rhsMax =  -1.91301866112304E+00  2.81271672379041E-03
 cg2d: Sum(rhs),rhsMax =  -2.30705933937641E+00  2.88449384496323E-03
 cg2d: Sum(rhs),rhsMax =  -2.64297546480370E+00  2.95188728973017E-03
 cg2d: Sum(rhs),rhsMax =  -2.86495122554646E+00  3.00154122091766E-03
 cg2d: Sum(rhs),rhsMax =  -2.94238801567362E+00  3.02377929733774E-03
 cg2d: Sum(rhs),rhsMax =  -2.84207306837374E+00  3.04217208764073E-03
 cg2d: Sum(rhs),rhsMax =  -2.51902169411130E+00  3.13830807329344E-03
 cg2d: Sum(rhs),rhsMax =  -2.14123723753038E+00  3.18959326105730E-03
 cg2d: Sum(rhs),rhsMax =  -1.76835912387344E+00  3.18714935307357E-03
 cg2d: Sum(rhs),rhsMax =  -1.45590342829100E+00  3.13272232401749E-03
 cg2d: Sum(rhs),rhsMax =  -1.25508063660255E+00  3.03818420613782E-03
 cg2d: Sum(rhs),rhsMax =  -1.20874896248617E+00  2.92305995466354E-03
 cg2d: Sum(rhs),rhsMax =  -1.34034302358516E+00  2.81059309676150E-03
 cg2d: Sum(rhs),rhsMax =  -1.62624320893716E+00  2.74190577066972E-03
(PID.TID 0000.0001) Did not write pickup because writePickupAtEnd = FALSE
 --> objf_test(bi,bj)   =  0.509071982240801D-01
 --> objf_tracer(bi,bj) =  0.000000000000000D+00
 --> objf_atl(bi,bj)    =  0.000000000000000D+00
  local fc =  0.509071982240801D-01
 global fc =  0.509071982240801D-01
 ph-check fcpertplus =   5.09071982240800955E-002
 ph-check fcpertminus =   5.09071982061511247E-002
(PID.TID 0000.0001) INI_CG2D: CG2D normalisation factor =  1.9999999999999996E-04
(PID.TID 0000.0001) 
                     ctrl_depth_ini: ctrl update R_low,
                                     adding the control vector.
(PID.TID 0000.0001) Start initial hydrostatic pressure computation
(PID.TID 0000.0001) Pressure is predetermined for buoyancyRelation OCEANIC
(PID.TID 0000.0001) 
(PID.TID 0000.0001) // =======================================================
(PID.TID 0000.0001) // Model current state
(PID.TID 0000.0001) // =======================================================
(PID.TID 0000.0001) 
(PID.TID 0000.0001) SOLVE_FOR_PRESSURE: putPmEinXvector =    F
 cg2d: Sum(rhs),rhsMax =   0.00000000000000E+00  0.00000000000000E+00
 cg2d: Sum(rhs),rhsMax =  -2.49999999999995E+01  6.03492218443701E-05
 cg2d: Sum(rhs),rhsMax =  -1.81034404639062E+01  2.18766023587219E-04
 cg2d: Sum(rhs),rhsMax =  -1.54955562832147E+01  4.32479836297448E-04
 cg2d: Sum(rhs),rhsMax =  -1.41111452330424E+01  6.49958988319210E-04
 cg2d: Sum(rhs),rhsMax =  -1.31144322329429E+01  8.30737102848515E-04
 cg2d: Sum(rhs),rhsMax =  -1.21209090317837E+01  9.52510662024180E-04
 cg2d: Sum(rhs),rhsMax =  -1.07124742372573E+01  1.02806631162615E-03
 cg2d: Sum(rhs),rhsMax =  -7.41375936713368E+00  1.27086596325705E-03
 cg2d: Sum(rhs),rhsMax =  -4.70217533513114E+00  1.51019014075099E-03
 cg2d: Sum(rhs),rhsMax =  -2.72440685977686E+00  1.65833738280206E-03
 cg2d: Sum(rhs),rhsMax =  -1.27958669078656E+00  1.70565508789568E-03
 cg2d: Sum(rhs),rhsMax =  -3.29564699294637E-01  1.66071960578297E-03
 cg2d: Sum(rhs),rhsMax =   5.21320405528480E-02  1.54812756139954E-03
 cg2d: Sum(rhs),rhsMax =  -2.86625374574040E-01  1.40338816107636E-03
 cg2d: Sum(rhs),rhsMax =  -1.30315843381773E+00  1.44268599699594E-03
 cg2d: Sum(rhs),rhsMax =  -2.68067690297242E+00  1.50836886645337E-03
 cg2d: Sum(rhs),rhsMax =  -4.07407453332105E+00  1.58424366931887E-03
 cg2d: Sum(rhs),rhsMax =  -5.18272347915680E+00  1.66593592894030E-03
 cg2d: Sum(rhs),rhsMax =  -5.80990598189079E+00  1.74846175393413E-03
 cg2d: Sum(rhs),rhsMax =  -5.87740627460786E+00  1.82725971226835E-03
 cg2d: Sum(rhs),rhsMax =  -5.41358311268312E+00  1.89900434711111E-03
 cg2d: Sum(rhs),rhsMax =  -4.53080676685760E+00  1.96213934567915E-03
 cg2d: Sum(rhs),rhsMax =  -3.22587898185192E+00  2.12611203162151E-03
 cg2d: Sum(rhs),rhsMax =  -2.04447211449617E+00  2.24837954282834E-03
 cg2d: Sum(rhs),rhsMax =  -1.10818137061619E+00  2.30404049644127E-03
 cg2d: Sum(rhs),rhsMax =  -4.90484879496875E-01  2.29576532838193E-03
 cg2d: Sum(rhs),rhsMax =  -2.61247063418701E-01  2.23814842543276E-03
 cg2d: Sum(rhs),rhsMax =  -4.50921968538658E-01  2.26266906980164E-03
 cg2d: Sum(rhs),rhsMax =  -1.00469610609375E+00  2.31946123065597E-03
 cg2d: Sum(rhs),rhsMax =  -1.78565331388585E+00  2.37599941599533E-03
 cg2d: Sum(rhs),rhsMax =  -2.62429308803985E+00  2.42805543414208E-03
 cg2d: Sum(rhs),rhsMax =  -3.35748486689747E+00  2.47123045016919E-03
 cg2d: Sum(rhs),rhsMax =  -3.85508917864055E+00  2.50195598290529E-03
 cg2d: Sum(rhs),rhsMax =  -4.03589978256035E+00  2.51830322468453E-03
 cg2d: Sum(rhs),rhsMax =  -3.87512848223123E+00  2.52047518999021E-03
 cg2d: Sum(rhs),rhsMax =  -3.40600368853115E+00  2.51092921651186E-03
 cg2d: Sum(rhs),rhsMax =  -2.61682443937689E+00  2.58874086711531E-03
 cg2d: Sum(rhs),rhsMax =  -1.83238712790242E+00  2.61669729081660E-03
 cg2d: Sum(rhs),rhsMax =  -1.17513338642133E+00  2.56005945168316E-03
 cg2d: Sum(rhs),rhsMax =  -7.11994616575576E-01  2.47855830805088E-03
 cg2d: Sum(rhs),rhsMax =  -5.26422152517052E-01  2.47042092404667E-03
 cg2d: Sum(rhs),rhsMax =  -6.78930216979120E-01  2.49676870176663E-03
 cg2d: Sum(rhs),rhsMax =  -1.12673722442071E+00  2.53652611287992E-03
 cg2d: Sum(rhs),rhsMax =  -1.75981626023116E+00  2.58504763664480E-03
 cg2d: Sum(rhs),rhsMax =  -2.43940636681476E+00  2.63568090046601E-03
 cg2d: Sum(rhs),rhsMax =  -3.03203010541915E+00  2.68092813567564E-03
 cg2d: Sum(rhs),rhsMax =  -3.40991313688659E+00  2.73286303056922E-03
 cg2d: Sum(rhs),rhsMax =  -3.48046025152376E+00  2.80943921484881E-03
 cg2d: Sum(rhs),rhsMax =  -3.32063074988090E+00  2.84054007743091E-03
 cg2d: Sum(rhs),rhsMax =  -2.96079449396082E+00  2.82589056654632E-03
 cg2d: Sum(rhs),rhsMax =  -2.32992812052172E+00  2.92147974527528E-03
 cg2d: Sum(rhs),rhsMax =  -1.72242457117299E+00  2.94384962459190E-03
 cg2d: Sum(rhs),rhsMax =  -1.21221904511043E+00  2.89157779277439E-03
 cg2d: Sum(rhs),rhsMax =  -8.69698402636715E-01  2.78046456808522E-03
 cg2d: Sum(rhs),rhsMax =  -7.64867813575161E-01  2.63730949420176E-03
 cg2d: Sum(rhs),rhsMax =  -9.31747861483928E-01  2.54529701407833E-03
 cg2d: Sum(rhs),rhsMax =  -1.31074340463638E+00  2.59464766553481E-03
 cg2d: Sum(rhs),rhsMax =  -1.82960845253912E+00  2.67470086100630E-03
 cg2d: Sum(rhs),rhsMax =  -2.36415411805835E+00  2.77096210041725E-03
 cg2d: Sum(rhs),rhsMax =  -2.80794782483425E+00  2.86583703877382E-03
 cg2d: Sum(rhs),rhsMax =  -3.09076541239643E+00  2.94225351887169E-03
 cg2d: Sum(rhs),rhsMax =  -3.17911027288952E+00  2.98708404672521E-03
 cg2d: Sum(rhs),rhsMax =  -3.06968984164492E+00  2.99369699459206E-03
 cg2d: Sum(rhs),rhsMax =  -2.74200032690835E+00  3.00868115343712E-03
 cg2d: Sum(rhs),rhsMax =  -2.22987020411535E+00  3.08320495658052E-03
 cg2d: Sum(rhs),rhsMax =  -1.72892386205719E+00  3.09216601599596E-03
 cg2d: Sum(rhs),rhsMax =  -1.30661128100822E+00  3.03707923124377E-03
 cg2d: Sum(rhs),rhsMax =  -1.02724589566066E+00  2.93201253761313E-03
 cg2d: Sum(rhs),rhsMax =  -9.49612103672186E-01  2.80059567599300E-03
 cg2d: Sum(rhs),rhsMax =  -1.10546684564637E+00  2.68802008919081E-03
 cg2d: Sum(rhs),rhsMax =  -1.41911849364680E+00  2.73183500788285E-03
 cg2d: Sum(rhs),rhsMax =  -1.85263656453302E+00  2.80075120839231E-03
 cg2d: Sum(rhs),rhsMax =  -2.30607110052018E+00  2.88121981065697E-03
 cg2d: Sum(rhs),rhsMax =  -2.69038338358593E+00  2.95745895226064E-03
 cg2d: Sum(rhs),rhsMax =  -2.94313290742331E+00  3.01465306175539E-03
 cg2d: Sum(rhs),rhsMax =  -3.03123929821535E+00  3.04190022307142E-03
 cg2d: Sum(rhs),rhsMax =  -2.94785328232935E+00  3.03433136482454E-03
 cg2d: Sum(rhs),rhsMax =  -2.61356658806710E+00  3.10365977026329E-03
 cg2d: Sum(rhs),rhsMax =  -2.18161320811844E+00  3.16115503766615E-03
 cg2d: Sum(rhs),rhsMax =  -1.75526126978058E+00  3.15966312102996E-03
 cg2d: Sum(rhs),rhsMax =  -1.39603746433560E+00  3.10114910797913E-03
 cg2d: Sum(rhs),rhsMax =  -1.16177143027520E+00  2.99876544062581E-03
 cg2d: Sum(rhs),rhsMax =  -1.10293750260404E+00  2.87411081950328E-03
 cg2d: Sum(rhs),rhsMax =  -1.24975137494639E+00  2.75286353338837E-03
 cg2d: Sum(rhs),rhsMax =  -1.53840874800454E+00  2.75098211276359E-03
 cg2d: Sum(rhs),rhsMax =  -1.91301879190702E+00  2.81271663646491E-03
 cg2d: Sum(rhs),rhsMax =  -2.30705948336734E+00  2.88449375569687E-03
 cg2d: Sum(rhs),rhsMax =  -2.64297562020992E+00  2.95188719863314E-03
 cg2d: Sum(rhs),rhsMax =  -2.86495138958074E+00  3.00154112811889E-03
 cg2d: Sum(rhs),rhsMax =  -2.94238818521127E+00  3.02377920295993E-03
 cg2d: Sum(rhs),rhsMax =  -2.84207317469659E+00  3.04217205946726E-03
 cg2d: Sum(rhs),rhsMax =  -2.51902179996648E+00  3.13830804139745E-03
 cg2d: Sum(rhs),rhsMax =  -2.14123734317586E+00  3.18959322533166E-03
 cg2d: Sum(rhs),rhsMax =  -1.76835922998587E+00  3.18714931411144E-03
 cg2d: Sum(rhs),rhsMax =  -1.45590353622707E+00  3.13272228299831E-03
 cg2d: Sum(rhs),rhsMax =  -1.25508074850768E+00  3.03818416460231E-03
 cg2d: Sum(rhs),rhsMax =  -1.20874908103087E+00  2.92305991422175E-03
 cg2d: Sum(rhs),rhsMax =  -1.34034315116741E+00  2.81059305879041E-03
 cg2d: Sum(rhs),rhsMax =  -1.62624338997848E+00  2.74190566094542E-03
(PID.TID 0000.0001) Did not write pickup because writePickupAtEnd = FALSE
 --> objf_test(bi,bj)   =  0.509071981882222D-01
 --> objf_tracer(bi,bj) =  0.000000000000000D+00
 --> objf_atl(bi,bj)    =  0.000000000000000D+00
  local fc =  0.509071981882222D-01
 global fc =  0.509071981882222D-01
grad-res -------------------------------
 grad-res     0    6    1    4    1    1    1    1   5.09071982062E-02  5.09071982241E-02  5.09071981882E-02
 grad-res     0    6    6   16    0    1    1    1   1.79069416988E-07  1.79289395830E-07 -1.22845567550E-03
(PID.TID 0000.0001)  ADM  ref_cost_function      =  5.09071982061511E-02
(PID.TID 0000.0001)  ADM  adjoint_gradient       =  1.79069416988065E-07
(PID.TID 0000.0001)  ADM  finite-diff_grad       =  1.79289395829674E-07
 ph-grd  ierr ---------------------------
 ph-grd  ierr =            0 , icomp =           16 , ichknum =            6
 ph-test icomp, ncvarcomp, ichknum           19          25           7
 ph-grd _loc: bi, bj, icomptest, ichknum            1           1          16           7
 ph-grd -->hit<--            4           4           1           1
(PID.TID 0000.0001) INI_CG2D: CG2D normalisation factor =  1.9999999999999996E-04
(PID.TID 0000.0001) 
                     ctrl_depth_ini: ctrl update R_low,
                                     adding the control vector.
(PID.TID 0000.0001) Start initial hydrostatic pressure computation
(PID.TID 0000.0001) Pressure is predetermined for buoyancyRelation OCEANIC
(PID.TID 0000.0001) 
(PID.TID 0000.0001) // =======================================================
(PID.TID 0000.0001) // Model current state
(PID.TID 0000.0001) // =======================================================
(PID.TID 0000.0001) 
(PID.TID 0000.0001) SOLVE_FOR_PRESSURE: putPmEinXvector =    F
 cg2d: Sum(rhs),rhsMax =   0.00000000000000E+00  0.00000000000000E+00
 cg2d: Sum(rhs),rhsMax =  -2.49999999999995E+01  6.03492218443701E-05
 cg2d: Sum(rhs),rhsMax =  -1.81034404639062E+01  2.18766023587219E-04
 cg2d: Sum(rhs),rhsMax =  -1.54955562832147E+01  4.32479836297448E-04
 cg2d: Sum(rhs),rhsMax =  -1.41111452330415E+01  6.49958988318883E-04
 cg2d: Sum(rhs),rhsMax =  -1.31144322331341E+01  8.30737102836117E-04
 cg2d: Sum(rhs),rhsMax =  -1.21209090323674E+01  9.52510661979086E-04
 cg2d: Sum(rhs),rhsMax =  -1.07124742393710E+01  1.02806631142607E-03
 cg2d: Sum(rhs),rhsMax =  -7.41375936712861E+00  1.27086596326402E-03
 cg2d: Sum(rhs),rhsMax =  -4.70217533469538E+00  1.51019014089896E-03
 cg2d: Sum(rhs),rhsMax =  -2.72440685918119E+00  1.65833738315982E-03
 cg2d: Sum(rhs),rhsMax =  -1.27958669025133E+00  1.70565508851263E-03
 cg2d: Sum(rhs),rhsMax =  -3.29564698938900E-01  1.66071960666995E-03
 cg2d: Sum(rhs),rhsMax =   5.21320408556842E-02  1.54812756251637E-03
 cg2d: Sum(rhs),rhsMax =  -2.86625373763237E-01  1.40338816232698E-03
 cg2d: Sum(rhs),rhsMax =  -1.30315843104348E+00  1.44268599929337E-03
 cg2d: Sum(rhs),rhsMax =  -2.68067689818117E+00  1.50836886871831E-03
 cg2d: Sum(rhs),rhsMax =  -4.07407452740595E+00  1.58424367133456E-03
 cg2d: Sum(rhs),rhsMax =  -5.18272347364686E+00  1.66593593052500E-03
 cg2d: Sum(rhs),rhsMax =  -5.80990597811396E+00  1.74846175497726E-03
 cg2d: Sum(rhs),rhsMax =  -5.87740627310538E+00  1.82725971275534E-03
 cg2d: Sum(rhs),rhsMax =  -5.41358311314464E+00  1.89900434713210E-03
 cg2d: Sum(rhs),rhsMax =  -4.53080676849073E+00  1.96213934541874E-03
 cg2d: Sum(rhs),rhsMax =  -3.22587898757648E+00  2.12611202882432E-03
 cg2d: Sum(rhs),rhsMax =  -2.04447211905859E+00  2.24837953990347E-03
 cg2d: Sum(rhs),rhsMax =  -1.10818137429419E+00  2.30404049361426E-03
 cg2d: Sum(rhs),rhsMax =  -4.90484882776058E-01  2.29576532584145E-03
 cg2d: Sum(rhs),rhsMax =  -2.61247066829473E-01  2.23814842329821E-03
 cg2d: Sum(rhs),rhsMax =  -4.50921971423367E-01  2.26266907248017E-03
 cg2d: Sum(rhs),rhsMax =  -1.00469610825072E+00  2.31946123394182E-03
 cg2d: Sum(rhs),rhsMax =  -1.78565331486349E+00  2.37599941965391E-03
 cg2d: Sum(rhs),rhsMax =  -2.62429308789491E+00  2.42805543788615E-03
 cg2d: Sum(rhs),rhsMax =  -3.35748486623447E+00  2.47123045370629E-03
 cg2d: Sum(rhs),rhsMax =  -3.85508917837292E+00  2.50195598598583E-03
 cg2d: Sum(rhs),rhsMax =  -4.03589978354841E+00  2.51830322714207E-03
 cg2d: Sum(rhs),rhsMax =  -3.87512848498507E+00  2.52047519176676E-03
 cg2d: Sum(rhs),rhsMax =  -3.40600369310522E+00  2.51092921766430E-03
 cg2d: Sum(rhs),rhsMax =  -2.61682444910334E+00  2.58874086402022E-03
 cg2d: Sum(rhs),rhsMax =  -1.83238713542428E+00  2.61669729030030E-03
 cg2d: Sum(rhs),rhsMax =  -1.17513339384164E+00  2.56005945277858E-03
 cg2d: Sum(rhs),rhsMax =  -7.11994626874719E-01  2.47855830259890E-03
 cg2d: Sum(rhs),rhsMax =  -5.26422161484497E-01  2.47042092523170E-03
 cg2d: Sum(rhs),rhsMax =  -6.78930225990149E-01  2.49676870350090E-03
 cg2d: Sum(rhs),rhsMax =  -1.12673723301624E+00  2.53652611516518E-03
 cg2d: Sum(rhs),rhsMax =  -1.75981626801389E+00  2.58504763939027E-03
 cg2d: Sum(rhs),rhsMax =  -2.43940637366410E+00  2.63568090351022E-03
 cg2d: Sum(rhs),rhsMax =  -3.03203011157912E+00  2.68092813881981E-03
 cg2d: Sum(rhs),rhsMax =  -3.40991313610460E+00  2.73286303903292E-03
 cg2d: Sum(rhs),rhsMax =  -3.48046025064743E+00  2.80943922346912E-03
 cg2d: Sum(rhs),rhsMax =  -3.32063074982469E+00  2.84054008606014E-03
 cg2d: Sum(rhs),rhsMax =  -2.96079449544744E+00  2.82589057510548E-03
 cg2d: Sum(rhs),rhsMax =  -2.32992813491708E+00  2.92147974036366E-03
 cg2d: Sum(rhs),rhsMax =  -1.72242458350599E+00  2.94384962186747E-03
 cg2d: Sum(rhs),rhsMax =  -1.21221905680807E+00  2.89157779165094E-03
 cg2d: Sum(rhs),rhsMax =  -8.69698414653366E-01  2.78046456771839E-03
 cg2d: Sum(rhs),rhsMax =  -7.64867826422264E-01  2.63730949366507E-03
 cg2d: Sum(rhs),rhsMax =  -9.31747870945429E-01  2.54529702429858E-03
 cg2d: Sum(rhs),rhsMax =  -1.31074341200297E+00  2.59464767654023E-03
 cg2d: Sum(rhs),rhsMax =  -1.82960845691569E+00  2.67470087283435E-03
 cg2d: Sum(rhs),rhsMax =  -2.36415411923903E+00  2.77096211304051E-03
 cg2d: Sum(rhs),rhsMax =  -2.80794782325314E+00  2.86583705211338E-03
 cg2d: Sum(rhs),rhsMax =  -3.09076540890486E+00  2.94225353282001E-03
 cg2d: Sum(rhs),rhsMax =  -3.17911026851830E+00  2.98708406117381E-03
 cg2d: Sum(rhs),rhsMax =  -3.06968983743294E+00  2.99369700945810E-03
 cg2d: Sum(rhs),rhsMax =  -2.74200034178255E+00  3.00868114923460E-03
 cg2d: Sum(rhs),rhsMax =  -2.22987021666869E+00  3.08320495420422E-03
 cg2d: Sum(rhs),rhsMax =  -1.72892387332005E+00  3.09216601520785E-03
 cg2d: Sum(rhs),rhsMax =  -1.30661129186821E+00  3.03707923150125E-03
 cg2d: Sum(rhs),rhsMax =  -1.02724590668552E+00  2.93201253818450E-03
 cg2d: Sum(rhs),rhsMax =  -9.49612115137902E-01  2.80059567611026E-03
 cg2d: Sum(rhs),rhsMax =  -1.10546684937970E+00  2.68802010840156E-03
 cg2d: Sum(rhs),rhsMax =  -1.41911849418038E+00  2.73183502808241E-03
 cg2d: Sum(rhs),rhsMax =  -1.85263656082819E+00  2.80075122957311E-03
 cg2d: Sum(rhs),rhsMax =  -2.30607109240580E+00  2.88121983276016E-03
 cg2d: Sum(rhs),rhsMax =  -2.69038337165113E+00  2.95745897519091E-03
 cg2d: Sum(rhs),rhsMax =  -2.94313289273817E+00  3.01465308540347E-03
 cg2d: Sum(rhs),rhsMax =  -3.03123928205721E+00  3.04190024733960E-03
 cg2d: Sum(rhs),rhsMax =  -2.94785326599273E+00  3.03433138965020E-03
 cg2d: Sum(rhs),rhsMax =  -2.61356659653366E+00  3.10365976895540E-03
 cg2d: Sum(rhs),rhsMax =  -2.18161321462074E+00  3.16115503835349E-03
 cg2d: Sum(rhs),rhsMax =  -1.75526127514489E+00  3.15966312338852E-03
 cg2d: Sum(rhs),rhsMax =  -1.39603746920982E+00  3.10114911138350E-03
 cg2d: Sum(rhs),rhsMax =  -1.16177143497560E+00  2.99876544426813E-03
 cg2d: Sum(rhs),rhsMax =  -1.10293750715729E+00  2.87411082254834E-03
 cg2d: Sum(rhs),rhsMax =  -1.24975137933040E+00  2.75286353513489E-03
 cg2d: Sum(rhs),rhsMax =  -1.53840873439414E+00  2.75098214478351E-03
 cg2d: Sum(rhs),rhsMax =  -1.91301877258931E+00  2.81271666970094E-03
 cg2d: Sum(rhs),rhsMax =  -2.30705945818322E+00  2.88449379006539E-03
 cg2d: Sum(rhs),rhsMax =  -2.64297558993120E+00  2.95188723400920E-03
 cg2d: Sum(rhs),rhsMax =  -2.86495135556365E+00  3.00154116436079E-03
 cg2d: Sum(rhs),rhsMax =  -2.94238814906170E+00  3.02377923993732E-03
 cg2d: Sum(rhs),rhsMax =  -2.84207317578096E+00  3.04217205738676E-03
 cg2d: Sum(rhs),rhsMax =  -2.51902179857250E+00  3.13830804127994E-03
 cg2d: Sum(rhs),rhsMax =  -2.14123733972333E+00  3.18959322730693E-03
 cg2d: Sum(rhs),rhsMax =  -1.76835922501872E+00  3.18714931793709E-03
 cg2d: Sum(rhs),rhsMax =  -1.45590353014258E+00  3.13272228810627E-03
 cg2d: Sum(rhs),rhsMax =  -1.25508074141045E+00  3.03818417020684E-03
 cg2d: Sum(rhs),rhsMax =  -1.20874907277122E+00  2.92305991946769E-03
 cg2d: Sum(rhs),rhsMax =  -1.34034314158079E+00  2.81059306291312E-03
 cg2d: Sum(rhs),rhsMax =  -1.62624335388474E+00  2.74190570624229E-03
(PID.TID 0000.0001) Did not write pickup because writePickupAtEnd = FALSE
 --> objf_test(bi,bj)   =  0.509071981790232D-01
 --> objf_tracer(bi,bj) =  0.000000000000000D+00
 --> objf_atl(bi,bj)    =  0.000000000000000D+00
  local fc =  0.509071981790232D-01
 global fc =  0.509071981790232D-01
 ph-check fcpertplus =   5.09071981790231790E-002
 ph-check fcpertminus =   5.09071982061511247E-002
(PID.TID 0000.0001) INI_CG2D: CG2D normalisation factor =  1.9999999999999996E-04
(PID.TID 0000.0001) 
                     ctrl_depth_ini: ctrl update R_low,
                                     adding the control vector.
(PID.TID 0000.0001) Start initial hydrostatic pressure computation
(PID.TID 0000.0001) Pressure is predetermined for buoyancyRelation OCEANIC
(PID.TID 0000.0001) 
(PID.TID 0000.0001) // =======================================================
(PID.TID 0000.0001) // Model current state
(PID.TID 0000.0001) // =======================================================
(PID.TID 0000.0001) 
(PID.TID 0000.0001) SOLVE_FOR_PRESSURE: putPmEinXvector =    F
 cg2d: Sum(rhs),rhsMax =   0.00000000000000E+00  0.00000000000000E+00
 cg2d: Sum(rhs),rhsMax =  -2.49999999999995E+01  6.03492218443701E-05
 cg2d: Sum(rhs),rhsMax =  -1.81034404639062E+01  2.18766023587219E-04
 cg2d: Sum(rhs),rhsMax =  -1.54955562832147E+01  4.32479836297448E-04
 cg2d: Sum(rhs),rhsMax =  -1.41111452328576E+01  6.49958988327952E-04
 cg2d: Sum(rhs),rhsMax =  -1.31144322333886E+01  8.30737102820647E-04
 cg2d: Sum(rhs),rhsMax =  -1.21209090327101E+01  9.52510661951511E-04
 cg2d: Sum(rhs),rhsMax =  -1.07124742350429E+01  1.02806631183807E-03
 cg2d: Sum(rhs),rhsMax =  -7.41375936618563E+00  1.27086596341741E-03
 cg2d: Sum(rhs),rhsMax =  -4.70217533441276E+00  1.51019014097723E-03
 cg2d: Sum(rhs),rhsMax =  -2.72440685937730E+00  1.65833738304040E-03
 cg2d: Sum(rhs),rhsMax =  -1.27958669069485E+00  1.70565508803008E-03
 cg2d: Sum(rhs),rhsMax =  -3.29564699366243E-01  1.66071960563785E-03
 cg2d: Sum(rhs),rhsMax =   5.21320404750926E-02  1.54812756075627E-03
 cg2d: Sum(rhs),rhsMax =  -2.86625375037898E-01  1.40338815970414E-03
 cg2d: Sum(rhs),rhsMax =  -1.30315843636027E+00  1.44268599446399E-03
 cg2d: Sum(rhs),rhsMax =  -2.68067690780738E+00  1.50836886390679E-03
 cg2d: Sum(rhs),rhsMax =  -4.07407453962492E+00  1.58424366699684E-03
 cg2d: Sum(rhs),rhsMax =  -5.18272348533181E+00  1.66593592705663E-03
 cg2d: Sum(rhs),rhsMax =  -5.80990598644756E+00  1.74846175263830E-03
 cg2d: Sum(rhs),rhsMax =  -5.87740627684592E+00  1.82725971161581E-03
 cg2d: Sum(rhs),rhsMax =  -5.41358311284118E+00  1.89900434704946E-03
 cg2d: Sum(rhs),rhsMax =  -4.53080676578042E+00  1.96213934605308E-03
 cg2d: Sum(rhs),rhsMax =  -3.22587899059332E+00  2.12611202558487E-03
 cg2d: Sum(rhs),rhsMax =  -2.04447211860623E+00  2.24837953761429E-03
 cg2d: Sum(rhs),rhsMax =  -1.10818137182438E+00  2.30404049213533E-03
 cg2d: Sum(rhs),rhsMax =  -4.90484879116700E-01  2.29576532491249E-03
 cg2d: Sum(rhs),rhsMax =  -2.61247062337567E-01  2.23814842258097E-03
 cg2d: Sum(rhs),rhsMax =  -4.50921967219853E-01  2.26266906809005E-03
 cg2d: Sum(rhs),rhsMax =  -1.00469610519006E+00  2.31946122840592E-03
 cg2d: Sum(rhs),rhsMax =  -1.78565331371172E+00  2.37599941343381E-03
 cg2d: Sum(rhs),rhsMax =  -2.62429308848833E+00  2.42805543156369E-03
 cg2d: Sum(rhs),rhsMax =  -3.35748486738239E+00  2.47123044788864E-03
 cg2d: Sum(rhs),rhsMax =  -3.85508917831571E+00  2.50195598120650E-03
 cg2d: Sum(rhs),rhsMax =  -4.03589978067767E+00  2.51830322377526E-03
 cg2d: Sum(rhs),rhsMax =  -3.87512847844595E+00  2.52047518996986E-03
 cg2d: Sum(rhs),rhsMax =  -3.40600368300693E+00  2.51092921735819E-03
 cg2d: Sum(rhs),rhsMax =  -2.61682441716663E+00  2.58874088430835E-03
 cg2d: Sum(rhs),rhsMax =  -1.83238710858723E+00  2.61669731067727E-03
 cg2d: Sum(rhs),rhsMax =  -1.17513337035660E+00  2.56005947315517E-03
 cg2d: Sum(rhs),rhsMax =  -7.11994611116210E-01  2.47855830217771E-03
 cg2d: Sum(rhs),rhsMax =  -5.26422144154527E-01  2.47042092608613E-03
 cg2d: Sum(rhs),rhsMax =  -6.78930207918889E-01  2.49676870341790E-03
 cg2d: Sum(rhs),rhsMax =  -1.12673721462658E+00  2.53652611410859E-03
 cg2d: Sum(rhs),rhsMax =  -1.75981624978112E+00  2.58504763751991E-03
 cg2d: Sum(rhs),rhsMax =  -2.43940635572935E+00  2.63568090114222E-03
 cg2d: Sum(rhs),rhsMax =  -3.03203009354032E+00  2.68092813636074E-03
 cg2d: Sum(rhs),rhsMax =  -3.40991310097346E+00  2.73286304993667E-03
 cg2d: Sum(rhs),rhsMax =  -3.48046021406900E+00  2.80943923514233E-03
 cg2d: Sum(rhs),rhsMax =  -3.32063071193481E+00  2.84054009867095E-03
 cg2d: Sum(rhs),rhsMax =  -2.96079445651981E+00  2.82589058874168E-03
 cg2d: Sum(rhs),rhsMax =  -2.32992808718600E+00  2.92147976858519E-03
 cg2d: Sum(rhs),rhsMax =  -1.72242454041151E+00  2.94384965033880E-03
 cg2d: Sum(rhs),rhsMax =  -1.21221901648708E+00  2.89157782025329E-03
 cg2d: Sum(rhs),rhsMax =  -8.69698374791744E-01  2.78046459640415E-03
 cg2d: Sum(rhs),rhsMax =  -7.64867784070322E-01  2.63730952245783E-03
 cg2d: Sum(rhs),rhsMax =  -9.31747827894936E-01  2.54529704179327E-03
 cg2d: Sum(rhs),rhsMax =  -1.31074336582848E+00  2.59464769413737E-03
 cg2d: Sum(rhs),rhsMax =  -1.82960840738525E+00  2.67470089050182E-03
 cg2d: Sum(rhs),rhsMax =  -2.36415406667718E+00  2.77096213081610E-03
 cg2d: Sum(rhs),rhsMax =  -2.80794776821665E+00  2.86583707008888E-03
 cg2d: Sum(rhs),rhsMax =  -3.09076535191814E+00  2.94225355111527E-03
 cg2d: Sum(rhs),rhsMax =  -3.17911020998914E+00  2.98708407990635E-03
 cg2d: Sum(rhs),rhsMax =  -3.06968977770078E+00  2.99369702871452E-03
 cg2d: Sum(rhs),rhsMax =  -2.74200027098530E+00  3.00868118156592E-03
 cg2d: Sum(rhs),rhsMax =  -2.22987015135103E+00  3.08320498661494E-03
 cg2d: Sum(rhs),rhsMax =  -1.72892381191507E+00  3.09216604759565E-03
 cg2d: Sum(rhs),rhsMax =  -1.30661123235517E+00  3.03707926381196E-03
 cg2d: Sum(rhs),rhsMax =  -1.02724584662649E+00  2.93201257041967E-03
 cg2d: Sum(rhs),rhsMax =  -9.49612051657273E-01  2.80059570832264E-03
 cg2d: Sum(rhs),rhsMax =  -1.10546678439483E+00  2.68802012965740E-03
 cg2d: Sum(rhs),rhsMax =  -1.41911842645396E+00  2.73183504922708E-03
 cg2d: Sum(rhs),rhsMax =  -1.85263649021496E+00  2.80075125061906E-03
 cg2d: Sum(rhs),rhsMax =  -2.30607101914912E+00  2.88121985377376E-03
 cg2d: Sum(rhs),rhsMax =  -2.69038329613437E+00  2.95745899627506E-03
 cg2d: Sum(rhs),rhsMax =  -2.94313281529359E+00  3.01465310667242E-03
 cg2d: Sum(rhs),rhsMax =  -3.03123920291488E+00  3.04190026889110E-03
 cg2d: Sum(rhs),rhsMax =  -2.94785318533260E+00  3.03433141154056E-03
 cg2d: Sum(rhs),rhsMax =  -2.61356650872818E+00  3.10365980236302E-03
 cg2d: Sum(rhs),rhsMax =  -2.18161313160573E+00  3.16115507143534E-03
 cg2d: Sum(rhs),rhsMax =  -1.75526119521185E+00  3.15966315605625E-03
 cg2d: Sum(rhs),rhsMax =  -1.39603739021424E+00  3.10114914361192E-03
 cg2d: Sum(rhs),rhsMax =  -1.16177135446600E+00  2.99876547610008E-03
 cg2d: Sum(rhs),rhsMax =  -1.10293742248717E+00  2.87411085408671E-03
 cg2d: Sum(rhs),rhsMax =  -1.24975128794025E+00  2.75286356652279E-03
 cg2d: Sum(rhs),rhsMax =  -1.53840864401770E+00  2.75098216605805E-03
 cg2d: Sum(rhs),rhsMax =  -1.91301868044070E+00  2.81271669055438E-03
 cg2d: Sum(rhs),rhsMax =  -2.30705936456050E+00  2.88449381059470E-03
 cg2d: Sum(rhs),rhsMax =  -2.64297549508238E+00  2.95188725435411E-03
 cg2d: Sum(rhs),rhsMax =  -2.86495125956350E+00  3.00154118467576E-03
 cg2d: Sum(rhs),rhsMax =  -2.94238805182314E+00  3.02377926036037E-03
 cg2d: Sum(rhs),rhsMax =  -2.84207306728934E+00  3.04217208972122E-03
 cg2d: Sum(rhs),rhsMax =  -2.51902169550525E+00  3.13830807341094E-03
 cg2d: Sum(rhs),rhsMax =  -2.14123724098285E+00  3.18959325908203E-03
 cg2d: Sum(rhs),rhsMax =  -1.76835912884054E+00  3.18714934924793E-03
 cg2d: Sum(rhs),rhsMax =  -1.45590343437544E+00  3.13272231890953E-03
 cg2d: Sum(rhs),rhsMax =  -1.25508064369972E+00  3.03818420053329E-03
 cg2d: Sum(rhs),rhsMax =  -1.20874897074576E+00  2.92305994941760E-03
 cg2d: Sum(rhs),rhsMax =  -1.34034303317172E+00  2.81059309263877E-03
 cg2d: Sum(rhs),rhsMax =  -1.62624324503083E+00  2.74190572537285E-03
(PID.TID 0000.0001) Did not write pickup because writePickupAtEnd = FALSE
 --> objf_test(bi,bj)   =  0.509071982332791D-01
 --> objf_tracer(bi,bj) =  0.000000000000000D+00
 --> objf_atl(bi,bj)    =  0.000000000000000D+00
  local fc =  0.509071982332791D-01
 global fc =  0.509071982332791D-01
grad-res -------------------------------
 grad-res     0    7    4    4    1    1    1    1   5.09071982062E-02  5.09071981790E-02  5.09071982333E-02
 grad-res     0    7    7   19    0    1    1    1  -2.71535242236E-07 -2.71279422537E-07  9.42123377367E-04
(PID.TID 0000.0001)  ADM  ref_cost_function      =  5.09071982061511E-02
(PID.TID 0000.0001)  ADM  adjoint_gradient       = -2.71535242236286E-07
(PID.TID 0000.0001)  ADM  finite-diff_grad       = -2.71279422536796E-07
 ph-grd  ierr ---------------------------
 ph-grd  ierr =            0 , icomp =           19 , ichknum =            7
 ph-test icomp, ncvarcomp, ichknum           22          25           8
 ph-grd _loc: bi, bj, icomptest, ichknum            1           1          19           8
 ph-grd -->hit<--            2           5           1           1
(PID.TID 0000.0001) INI_CG2D: CG2D normalisation factor =  1.9999999999999996E-04
(PID.TID 0000.0001) 
                     ctrl_depth_ini: ctrl update R_low,
                                     adding the control vector.
(PID.TID 0000.0001) Start initial hydrostatic pressure computation
(PID.TID 0000.0001) Pressure is predetermined for buoyancyRelation OCEANIC
(PID.TID 0000.0001) 
(PID.TID 0000.0001) // =======================================================
(PID.TID 0000.0001) // Model current state
(PID.TID 0000.0001) // =======================================================
(PID.TID 0000.0001) 
(PID.TID 0000.0001) SOLVE_FOR_PRESSURE: putPmEinXvector =    F
 cg2d: Sum(rhs),rhsMax =   0.00000000000000E+00  0.00000000000000E+00
 cg2d: Sum(rhs),rhsMax =  -2.49999999999995E+01  6.03492218443701E-05
 cg2d: Sum(rhs),rhsMax =  -1.81034404639062E+01  2.18766023587219E-04
 cg2d: Sum(rhs),rhsMax =  -1.54955562454972E+01  4.32479837349285E-04
 cg2d: Sum(rhs),rhsMax =  -1.41111451989784E+01  6.49958989883935E-04
 cg2d: Sum(rhs),rhsMax =  -1.31144322099189E+01  8.30737104297124E-04
 cg2d: Sum(rhs),rhsMax =  -1.21209090199114E+01  9.52510662940864E-04
 cg2d: Sum(rhs),rhsMax =  -1.07124742395621E+01  1.02806631138290E-03
 cg2d: Sum(rhs),rhsMax =  -7.41375934553230E+00  1.27086596693103E-03
 cg2d: Sum(rhs),rhsMax =  -4.70217531972487E+00  1.51019014567675E-03
 cg2d: Sum(rhs),rhsMax =  -2.72440685133044E+00  1.65833738798348E-03
 cg2d: Sum(rhs),rhsMax =  -1.27958668785206E+00  1.70565509214149E-03
 cg2d: Sum(rhs),rhsMax =  -3.29564699366858E-01  1.66071960795083E-03
 cg2d: Sum(rhs),rhsMax =   5.21320397392504E-02  1.54812756064207E-03
 cg2d: Sum(rhs),rhsMax =  -2.86625376670755E-01  1.40338815702897E-03
 cg2d: Sum(rhs),rhsMax =  -1.30315843818040E+00  1.44268599388836E-03
 cg2d: Sum(rhs),rhsMax =  -2.68067691170487E+00  1.50836886252888E-03
 cg2d: Sum(rhs),rhsMax =  -4.07407454754410E+00  1.58424366452066E-03
 cg2d: Sum(rhs),rhsMax =  -5.18272349878970E+00  1.66593592325498E-03
 cg2d: Sum(rhs),rhsMax =  -5.80990600559511E+00  1.74846174739241E-03
 cg2d: Sum(rhs),rhsMax =  -5.87740630016180E+00  1.82725970493752E-03
 cg2d: Sum(rhs),rhsMax =  -5.41358313756883E+00  1.89900433908042E-03
 cg2d: Sum(rhs),rhsMax =  -4.53080678884662E+00  1.96213933703992E-03
 cg2d: Sum(rhs),rhsMax =  -3.22587898120445E+00  2.12611203337877E-03
 cg2d: Sum(rhs),rhsMax =  -2.04447211416138E+00  2.24837954547612E-03
 cg2d: Sum(rhs),rhsMax =  -1.10818137182517E+00  2.30404049852829E-03
 cg2d: Sum(rhs),rhsMax =  -4.90484881904308E-01  2.29576532848332E-03
 cg2d: Sum(rhs),rhsMax =  -2.61247066475706E-01  2.23814842241078E-03
 cg2d: Sum(rhs),rhsMax =  -4.50921973876836E-01  2.26266905737759E-03
 cg2d: Sum(rhs),rhsMax =  -1.00469611487274E+00  2.31946121715649E-03
 cg2d: Sum(rhs),rhsMax =  -1.78565332790784E+00  2.37599940124903E-03
 cg2d: Sum(rhs),rhsMax =  -2.62429310835953E+00  2.42805541801237E-03
 cg2d: Sum(rhs),rhsMax =  -3.35748489358157E+00  2.47123043257389E-03
 cg2d: Sum(rhs),rhsMax =  -3.85508921066289E+00  2.50195596382753E-03
 cg2d: Sum(rhs),rhsMax =  -4.03589981787438E+00  2.51830320417301E-03
 cg2d: Sum(rhs),rhsMax =  -3.87512851804452E+00  2.52047516814830E-03
 cg2d: Sum(rhs),rhsMax =  -3.40600372177899E+00  2.51092919347783E-03
 cg2d: Sum(rhs),rhsMax =  -2.61682440381559E+00  2.58874090396559E-03
 cg2d: Sum(rhs),rhsMax =  -1.83238710073223E+00  2.61669733161022E-03
 cg2d: Sum(rhs),rhsMax =  -1.17513336730455E+00  2.56005949576103E-03
 cg2d: Sum(rhs),rhsMax =  -7.11994618860587E-01  2.47855830283833E-03
 cg2d: Sum(rhs),rhsMax =  -5.26422158721454E-01  2.47042089663963E-03
 cg2d: Sum(rhs),rhsMax =  -6.78930224535881E-01  2.49676867347731E-03
 cg2d: Sum(rhs),rhsMax =  -1.12673723672031E+00  2.53652608359692E-03
 cg2d: Sum(rhs),rhsMax =  -1.75981627957811E+00  2.58504760624234E-03
 cg2d: Sum(rhs),rhsMax =  -2.43940639403862E+00  2.63568086882844E-03
 cg2d: Sum(rhs),rhsMax =  -3.03203013986262E+00  2.68092810271948E-03
 cg2d: Sum(rhs),rhsMax =  -3.40991311167125E+00  2.73286304786124E-03
 cg2d: Sum(rhs),rhsMax =  -3.48046022489888E+00  2.80943923275457E-03
 cg2d: Sum(rhs),rhsMax =  -3.32063072300860E+00  2.84054009585213E-03
 cg2d: Sum(rhs),rhsMax =  -2.96079446785050E+00  2.82589058539683E-03
 cg2d: Sum(rhs),rhsMax =  -2.32992807144159E+00  2.92147979784161E-03
 cg2d: Sum(rhs),rhsMax =  -1.72242453051997E+00  2.94384968014433E-03
 cg2d: Sum(rhs),rhsMax =  -1.21221901128011E+00  2.89157785099828E-03
 cg2d: Sum(rhs),rhsMax =  -8.69698372737568E-01  2.78046462837244E-03
 cg2d: Sum(rhs),rhsMax =  -7.64867782672383E-01  2.63730955577409E-03
 cg2d: Sum(rhs),rhsMax =  -9.31747838538549E-01  2.54529703556410E-03
 cg2d: Sum(rhs),rhsMax =  -1.31074337699945E+00  2.59464768770344E-03
 cg2d: Sum(rhs),rhsMax =  -1.82960841921738E+00  2.67470088391949E-03
 cg2d: Sum(rhs),rhsMax =  -2.36415407907346E+00  2.77096212410691E-03
 cg2d: Sum(rhs),rhsMax =  -2.80794778095146E+00  2.86583706323972E-03
 cg2d: Sum(rhs),rhsMax =  -3.09076536474018E+00  2.94225354408574E-03
 cg2d: Sum(rhs),rhsMax =  -3.17911022266028E+00  2.98708407264131E-03
 cg2d: Sum(rhs),rhsMax =  -3.06968978997920E+00  2.99369702115940E-03
 cg2d: Sum(rhs),rhsMax =  -2.74200024242099E+00  3.00868121744766E-03
 cg2d: Sum(rhs),rhsMax =  -2.22987012888686E+00  3.08320502277634E-03
 cg2d: Sum(rhs),rhsMax =  -1.72892379466574E+00  3.09216608440088E-03
 cg2d: Sum(rhs),rhsMax =  -1.30661121911486E+00  3.03707930158572E-03
 cg2d: Sum(rhs),rhsMax =  -1.02724583565183E+00  2.93201260937969E-03
 cg2d: Sum(rhs),rhsMax =  -9.49612040283332E-01  2.80059574853455E-03
 cg2d: Sum(rhs),rhsMax =  -1.10546678987314E+00  2.68802012046909E-03
 cg2d: Sum(rhs),rhsMax =  -1.41911843215062E+00  2.73183504005485E-03
 cg2d: Sum(rhs),rhsMax =  -1.85263649635570E+00  2.80075124149320E-03
 cg2d: Sum(rhs),rhsMax =  -2.30607102567670E+00  2.88121984469184E-03
 cg2d: Sum(rhs),rhsMax =  -2.69038330280979E+00  2.95745898720448E-03
 cg2d: Sum(rhs),rhsMax =  -2.94313282180162E+00  3.01465309755918E-03
 cg2d: Sum(rhs),rhsMax =  -3.03123920891495E+00  3.04190025967319E-03
 cg2d: Sum(rhs),rhsMax =  -2.94785319046074E+00  3.03433140216323E-03
 cg2d: Sum(rhs),rhsMax =  -2.61356646844685E+00  3.10365984469896E-03
 cg2d: Sum(rhs),rhsMax =  -2.18161309675975E+00  3.16115511432399E-03
 cg2d: Sum(rhs),rhsMax =  -1.75526116489961E+00  3.15966319991681E-03
 cg2d: Sum(rhs),rhsMax =  -1.39603736308089E+00  3.10114918879975E-03
 cg2d: Sum(rhs),rhsMax =  -1.16177132852829E+00  2.99876552283594E-03
 cg2d: Sum(rhs),rhsMax =  -1.10293739484986E+00  2.87411090241110E-03
 cg2d: Sum(rhs),rhsMax =  -1.24975125479535E+00  2.75286361628537E-03
 cg2d: Sum(rhs),rhsMax =  -1.53840863760860E+00  2.75098215655650E-03
 cg2d: Sum(rhs),rhsMax =  -1.91301867402321E+00  2.81271668133284E-03
 cg2d: Sum(rhs),rhsMax =  -2.30705935808767E+00  2.88449380164492E-03
 cg2d: Sum(rhs),rhsMax =  -2.64297548831049E+00  2.95188724563040E-03
 cg2d: Sum(rhs),rhsMax =  -2.86495125215657E+00  3.00154117610445E-03
 cg2d: Sum(rhs),rhsMax =  -2.94238804340847E+00  3.02377925185435E-03
 cg2d: Sum(rhs),rhsMax =  -2.84207300218938E+00  3.04217214038599E-03
 cg2d: Sum(rhs),rhsMax =  -2.51902163647200E+00  3.13830812412211E-03
 cg2d: Sum(rhs),rhsMax =  -2.14123718751604E+00  3.18959331027896E-03
 cg2d: Sum(rhs),rhsMax =  -1.76835907973089E+00  3.18714940140449E-03
 cg2d: Sum(rhs),rhsMax =  -1.45590338787452E+00  3.13272237244440E-03
 cg2d: Sum(rhs),rhsMax =  -1.25508059741874E+00  3.03818425573055E-03
 cg2d: Sum(rhs),rhsMax =  -1.20874892148033E+00  2.92306000637271E-03
 cg2d: Sum(rhs),rhsMax =  -1.34034297702421E+00  2.81059315124098E-03
 cg2d: Sum(rhs),rhsMax =  -1.62624321937401E+00  2.74190571720183E-03
(PID.TID 0000.0001) Did not write pickup because writePickupAtEnd = FALSE
 --> objf_test(bi,bj)   =  0.509071986631348D-01
 --> objf_tracer(bi,bj) =  0.000000000000000D+00
 --> objf_atl(bi,bj)    =  0.000000000000000D+00
  local fc =  0.509071986631348D-01
 global fc =  0.509071986631348D-01
 ph-check fcpertplus =   5.09071986631347978E-002
 ph-check fcpertminus =   5.09071982061511247E-002
(PID.TID 0000.0001) INI_CG2D: CG2D normalisation factor =  1.9999999999999996E-04
(PID.TID 0000.0001) 
                     ctrl_depth_ini: ctrl update R_low,
                                     adding the control vector.
(PID.TID 0000.0001) Start initial hydrostatic pressure computation
(PID.TID 0000.0001) Pressure is predetermined for buoyancyRelation OCEANIC
(PID.TID 0000.0001) 
(PID.TID 0000.0001) // =======================================================
(PID.TID 0000.0001) // Model current state
(PID.TID 0000.0001) // =======================================================
(PID.TID 0000.0001) 
(PID.TID 0000.0001) SOLVE_FOR_PRESSURE: putPmEinXvector =    F
 cg2d: Sum(rhs),rhsMax =   0.00000000000000E+00  0.00000000000000E+00
 cg2d: Sum(rhs),rhsMax =  -2.49999999999995E+01  6.03492218443701E-05
 cg2d: Sum(rhs),rhsMax =  -1.81034404639062E+01  2.18766023587219E-04
 cg2d: Sum(rhs),rhsMax =  -1.54955563209319E+01  4.32479835245618E-04
 cg2d: Sum(rhs),rhsMax =  -1.41111452669208E+01  6.49958986762897E-04
 cg2d: Sum(rhs),rhsMax =  -1.31144322566037E+01  8.30737101359649E-04
 cg2d: Sum(rhs),rhsMax =  -1.21209090451660E+01  9.52510660989742E-04
 cg2d: Sum(rhs),rhsMax =  -1.07124742348518E+01  1.02806631188124E-03
 cg2d: Sum(rhs),rhsMax =  -7.41375938778190E+00  1.27086595975040E-03
 cg2d: Sum(rhs),rhsMax =  -4.70217534938324E+00  1.51019013619944E-03
 cg2d: Sum(rhs),rhsMax =  -2.72440686722798E+00  1.65833737821675E-03
 cg2d: Sum(rhs),rhsMax =  -1.27958669309408E+00  1.70565508440121E-03
 cg2d: Sum(rhs),rhsMax =  -3.29564698938241E-01  1.66071960435697E-03
 cg2d: Sum(rhs),rhsMax =   5.21320415915701E-02  1.54812756263057E-03
 cg2d: Sum(rhs),rhsMax =  -2.86625372130330E-01  1.40338816500213E-03
 cg2d: Sum(rhs),rhsMax =  -1.30315842922331E+00  1.44268599986900E-03
 cg2d: Sum(rhs),rhsMax =  -2.68067689428364E+00  1.50836887009623E-03
 cg2d: Sum(rhs),rhsMax =  -4.07407451948677E+00  1.58424367381071E-03
 cg2d: Sum(rhs),rhsMax =  -5.18272346018892E+00  1.66593593432665E-03
 cg2d: Sum(rhs),rhsMax =  -5.80990595896642E+00  1.74846176022314E-03
 cg2d: Sum(rhs),rhsMax =  -5.87740624978942E+00  1.82725971943365E-03
 cg2d: Sum(rhs),rhsMax =  -5.41358308841695E+00  1.89900435510114E-03
 cg2d: Sum(rhs),rhsMax =  -4.53080674542450E+00  1.96213935443189E-03
 cg2d: Sum(rhs),rhsMax =  -3.22587899696532E+00  2.12611202103042E-03
 cg2d: Sum(rhs),rhsMax =  -2.04447212350341E+00  2.24837953204164E-03
 cg2d: Sum(rhs),rhsMax =  -1.10818137429338E+00  2.30404048722129E-03
 cg2d: Sum(rhs),rhsMax =  -4.90484879988416E-01  2.29576532227062E-03
 cg2d: Sum(rhs),rhsMax =  -2.61247062691301E-01  2.23814842346839E-03
 cg2d: Sum(rhs),rhsMax =  -4.50921964766350E-01  2.26266908319262E-03
 cg2d: Sum(rhs),rhsMax =  -1.00469609856801E+00  2.31946124519124E-03
 cg2d: Sum(rhs),rhsMax =  -1.78565330066734E+00  2.37599943183870E-03
 cg2d: Sum(rhs),rhsMax =  -2.62429306802370E+00  2.42805545143746E-03
 cg2d: Sum(rhs),rhsMax =  -3.35748484003529E+00  2.47123046902103E-03
 cg2d: Sum(rhs),rhsMax =  -3.85508914602576E+00  2.50195600336478E-03
 cg2d: Sum(rhs),rhsMax =  -4.03589974635167E+00  2.51830324674432E-03
 cg2d: Sum(rhs),rhsMax =  -3.87512844538649E+00  2.52047521358832E-03
 cg2d: Sum(rhs),rhsMax =  -3.40600365433313E+00  2.51092924154465E-03
 cg2d: Sum(rhs),rhsMax =  -2.61682446245436E+00  2.58874084436298E-03
 cg2d: Sum(rhs),rhsMax =  -1.83238714327925E+00  2.61669726936737E-03
 cg2d: Sum(rhs),rhsMax =  -1.17513339689367E+00  2.56005943017272E-03
 cg2d: Sum(rhs),rhsMax =  -7.11994619130318E-01  2.47855830193828E-03
 cg2d: Sum(rhs),rhsMax =  -5.26422146917542E-01  2.47042095467822E-03
 cg2d: Sum(rhs),rhsMax =  -6.78930209373134E-01  2.49676873344148E-03
 cg2d: Sum(rhs),rhsMax =  -1.12673721092248E+00  2.53652614567685E-03
 cg2d: Sum(rhs),rhsMax =  -1.75981623821687E+00  2.58504767066784E-03
 cg2d: Sum(rhs),rhsMax =  -2.43940633535482E+00  2.63568093582399E-03
 cg2d: Sum(rhs),rhsMax =  -3.03203006525680E+00  2.68092817246106E-03
 cg2d: Sum(rhs),rhsMax =  -3.40991312540677E+00  2.73286304110837E-03
 cg2d: Sum(rhs),rhsMax =  -3.48046023981753E+00  2.80943922585688E-03
 cg2d: Sum(rhs),rhsMax =  -3.32063073875090E+00  2.84054008887896E-03
 cg2d: Sum(rhs),rhsMax =  -2.96079448411674E+00  2.82589057845033E-03
 cg2d: Sum(rhs),rhsMax =  -2.32992815066149E+00  2.92147971110724E-03
 cg2d: Sum(rhs),rhsMax =  -1.72242459339752E+00  2.94384959206196E-03
 cg2d: Sum(rhs),rhsMax =  -1.21221906201505E+00  2.89157776090597E-03
 cg2d: Sum(rhs),rhsMax =  -8.69698416707549E-01  2.78046453575011E-03
 cg2d: Sum(rhs),rhsMax =  -7.64867827820212E-01  2.63730946034883E-03
 cg2d: Sum(rhs),rhsMax =  -9.31747860301827E-01  2.54529703052777E-03
 cg2d: Sum(rhs),rhsMax =  -1.31074340083201E+00  2.59464768297416E-03
 cg2d: Sum(rhs),rhsMax =  -1.82960844508357E+00  2.67470087941668E-03
 cg2d: Sum(rhs),rhsMax =  -2.36415410684276E+00  2.77096211974970E-03
 cg2d: Sum(rhs),rhsMax =  -2.80794781051834E+00  2.86583705896252E-03
 cg2d: Sum(rhs),rhsMax =  -3.09076539608282E+00  2.94225353984956E-03
 cg2d: Sum(rhs),rhsMax =  -3.17911025584717E+00  2.98708406843885E-03
 cg2d: Sum(rhs),rhsMax =  -3.06968982515455E+00  2.99369701701321E-03
 cg2d: Sum(rhs),rhsMax =  -2.74200037034686E+00  3.00868111335288E-03
 cg2d: Sum(rhs),rhsMax =  -2.22987023913287E+00  3.08320491804284E-03
 cg2d: Sum(rhs),rhsMax =  -1.72892389056941E+00  3.09216597840261E-03
 cg2d: Sum(rhs),rhsMax =  -1.30661130510855E+00  3.03707919372750E-03
 cg2d: Sum(rhs),rhsMax =  -1.02724591766020E+00  2.93201249922447E-03
 cg2d: Sum(rhs),rhsMax =  -9.49612126511869E-01  2.80059563589836E-03
 cg2d: Sum(rhs),rhsMax =  -1.10546684390142E+00  2.68802011758987E-03
 cg2d: Sum(rhs),rhsMax =  -1.41911848848374E+00  2.73183503725466E-03
 cg2d: Sum(rhs),rhsMax =  -1.85263655468748E+00  2.80075123869898E-03
 cg2d: Sum(rhs),rhsMax =  -2.30607108587824E+00  2.88121984184208E-03
 cg2d: Sum(rhs),rhsMax =  -2.69038336497574E+00  2.95745898426150E-03
 cg2d: Sum(rhs),rhsMax =  -2.94313288623016E+00  3.01465309451671E-03
 cg2d: Sum(rhs),rhsMax =  -3.03123927605715E+00  3.04190025655753E-03
 cg2d: Sum(rhs),rhsMax =  -2.94785326086461E+00  3.03433139902755E-03
 cg2d: Sum(rhs),rhsMax =  -2.61356663681504E+00  3.10365972661946E-03
 cg2d: Sum(rhs),rhsMax =  -2.18161324946675E+00  3.16115499546487E-03
 cg2d: Sum(rhs),rhsMax =  -1.75526130545717E+00  3.15966307952798E-03
 cg2d: Sum(rhs),rhsMax =  -1.39603749634322E+00  3.10114906619568E-03
 cg2d: Sum(rhs),rhsMax =  -1.16177146091337E+00  2.99876539753230E-03
 cg2d: Sum(rhs),rhsMax =  -1.10293753479466E+00  2.87411077422397E-03
 cg2d: Sum(rhs),rhsMax =  -1.24975141247536E+00  2.75286348537234E-03
 cg2d: Sum(rhs),rhsMax =  -1.53840874080330E+00  2.75098215428507E-03
 cg2d: Sum(rhs),rhsMax =  -1.91301877900686E+00  2.81271667892249E-03
 cg2d: Sum(rhs),rhsMax =  -2.30705946465610E+00  2.88449379901519E-03
 cg2d: Sum(rhs),rhsMax =  -2.64297559670314E+00  2.95188724273292E-03
 cg2d: Sum(rhs),rhsMax =  -2.86495136297060E+00  3.00154117293213E-03
 cg2d: Sum(rhs),rhsMax =  -2.94238815747641E+00  3.02377924844334E-03
 cg2d: Sum(rhs),rhsMax =  -2.84207324088096E+00  3.04217200672202E-03
 cg2d: Sum(rhs),rhsMax =  -2.51902185760579E+00  3.13830799056879E-03
 cg2d: Sum(rhs),rhsMax =  -2.14123739319020E+00  3.18959317611000E-03
 cg2d: Sum(rhs),rhsMax =  -1.76835927412842E+00  3.18714926578054E-03
 cg2d: Sum(rhs),rhsMax =  -1.45590357664355E+00  3.13272223457140E-03
 cg2d: Sum(rhs),rhsMax =  -1.25508078769149E+00  3.03818411500962E-03
 cg2d: Sum(rhs),rhsMax =  -1.20874912203672E+00  2.92305986251257E-03
 cg2d: Sum(rhs),rhsMax =  -1.34034319772836E+00  2.81059300431093E-03
 cg2d: Sum(rhs),rhsMax =  -1.62624337954162E+00  2.74190571441330E-03
(PID.TID 0000.0001) Did not write pickup because writePickupAtEnd = FALSE
 --> objf_test(bi,bj)   =  0.509071977491675D-01
 --> objf_tracer(bi,bj) =  0.000000000000000D+00
 --> objf_atl(bi,bj)    =  0.000000000000000D+00
  local fc =  0.509071977491675D-01
 global fc =  0.509071977491675D-01
grad-res -------------------------------
 grad-res     0    8    2    5    1    1    1    1   5.09071982062E-02  5.09071986631E-02  5.09071977492E-02
 grad-res     0    8    8   22    0    1    1    1   4.57004223183E-06  4.56983645369E-06  4.50276220947E-05
(PID.TID 0000.0001)  ADM  ref_cost_function      =  5.09071982061511E-02
(PID.TID 0000.0001)  ADM  adjoint_gradient       =  4.57004223182848E-06
(PID.TID 0000.0001)  ADM  finite-diff_grad       =  4.56983645369391E-06
 ph-grd  ierr ---------------------------
 ph-grd  ierr =            0 , icomp =           22 , ichknum =            8
 ph-test icomp, ncvarcomp, ichknum           25          25           9
 ph-grd _loc: bi, bj, icomptest, ichknum            1           1          22           9
 ph-grd -->hit<--            5           5           1           1
(PID.TID 0000.0001) INI_CG2D: CG2D normalisation factor =  1.9999999999999996E-04
(PID.TID 0000.0001) 
                     ctrl_depth_ini: ctrl update R_low,
                                     adding the control vector.
(PID.TID 0000.0001) Start initial hydrostatic pressure computation
(PID.TID 0000.0001) Pressure is predetermined for buoyancyRelation OCEANIC
(PID.TID 0000.0001) 
(PID.TID 0000.0001) // =======================================================
(PID.TID 0000.0001) // Model current state
(PID.TID 0000.0001) // =======================================================
(PID.TID 0000.0001) 
(PID.TID 0000.0001) SOLVE_FOR_PRESSURE: putPmEinXvector =    F
 cg2d: Sum(rhs),rhsMax =   0.00000000000000E+00  0.00000000000000E+00
 cg2d: Sum(rhs),rhsMax =  -2.49999999999995E+01  6.03492218443701E-05
 cg2d: Sum(rhs),rhsMax =  -1.81034404639062E+01  2.18766023587219E-04
 cg2d: Sum(rhs),rhsMax =  -1.54955562832178E+01  4.32479836297448E-04
 cg2d: Sum(rhs),rhsMax =  -1.41111452327969E+01  6.49958988329164E-04
 cg2d: Sum(rhs),rhsMax =  -1.31144322329656E+01  8.30737102842620E-04
 cg2d: Sum(rhs),rhsMax =  -1.21209090321915E+01  9.52510661983319E-04
 cg2d: Sum(rhs),rhsMax =  -1.07124742375994E+01  1.02806631157913E-03
 cg2d: Sum(rhs),rhsMax =  -7.41375936628335E+00  1.27086596337886E-03
 cg2d: Sum(rhs),rhsMax =  -4.70217533429867E+00  1.51019014098280E-03
 cg2d: Sum(rhs),rhsMax =  -2.72440685916946E+00  1.65833738313249E-03
 cg2d: Sum(rhs),rhsMax =  -1.27958669051859E+00  1.70565508826080E-03
 cg2d: Sum(rhs),rhsMax =  -3.29564699351093E-01  1.66071960605868E-03
 cg2d: Sum(rhs),rhsMax =   5.21320402881287E-02  1.54812756140622E-03
 cg2d: Sum(rhs),rhsMax =  -2.86625375151187E-01  1.40338816059652E-03
 cg2d: Sum(rhs),rhsMax =  -1.30315843038132E+00  1.44268600153612E-03
 cg2d: Sum(rhs),rhsMax =  -2.68067689427345E+00  1.50836887181649E-03
 cg2d: Sum(rhs),rhsMax =  -4.07407451850219E+00  1.58424367546264E-03
 cg2d: Sum(rhs),rhsMax =  -5.18272345887798E+00  1.66593593581576E-03
 cg2d: Sum(rhs),rhsMax =  -5.80990595797379E+00  1.74846176150216E-03
 cg2d: Sum(rhs),rhsMax =  -5.87740624943449E+00  1.82725972051473E-03
 cg2d: Sum(rhs),rhsMax =  -5.41358308866274E+00  1.89900435605782E-03
 cg2d: Sum(rhs),rhsMax =  -4.53080674607398E+00  1.96213935539037E-03
 cg2d: Sum(rhs),rhsMax =  -3.22587899452965E+00  2.12611202440853E-03
 cg2d: Sum(rhs),rhsMax =  -2.04447212273046E+00  2.24837953584228E-03
 cg2d: Sum(rhs),rhsMax =  -1.10818137589502E+00  2.30404048985163E-03
 cg2d: Sum(rhs),rhsMax =  -4.90484883237660E-01  2.29576532223561E-03
 cg2d: Sum(rhs),rhsMax =  -2.61247066938829E-01  2.23814841964128E-03
 cg2d: Sum(rhs),rhsMax =  -4.50921968289191E-01  2.26266908708498E-03
 cg2d: Sum(rhs),rhsMax =  -1.00469610136250E+00  2.31946124969568E-03
 cg2d: Sum(rhs),rhsMax =  -1.78565330205616E+00  2.37599943685311E-03
 cg2d: Sum(rhs),rhsMax =  -2.62429306770074E+00  2.42805545683657E-03
 cg2d: Sum(rhs),rhsMax =  -3.35748483815191E+00  2.47123047468095E-03
 cg2d: Sum(rhs),rhsMax =  -3.85508914310423E+00  2.50195600918658E-03
 cg2d: Sum(rhs),rhsMax =  -4.03589974311233E+00  2.51830325267249E-03
 cg2d: Sum(rhs),rhsMax =  -3.87512844258248E+00  2.52047521962130E-03
 cg2d: Sum(rhs),rhsMax =  -3.40600365264363E+00  2.51092924773583E-03
 cg2d: Sum(rhs),rhsMax =  -2.61682447203693E+00  2.58874084155331E-03
 cg2d: Sum(rhs),rhsMax =  -1.83238715287026E+00  2.61669726561025E-03
 cg2d: Sum(rhs),rhsMax =  -1.17513340647817E+00  2.56005942560225E-03
 cg2d: Sum(rhs),rhsMax =  -7.11994629669379E-01  2.47855829380374E-03
 cg2d: Sum(rhs),rhsMax =  -5.26422153819578E-01  2.47042096348155E-03
 cg2d: Sum(rhs),rhsMax =  -6.78930216038404E-01  2.49676874308016E-03
 cg2d: Sum(rhs),rhsMax =  -1.12673721602493E+00  2.53652615617333E-03
 cg2d: Sum(rhs),rhsMax =  -1.75981624070119E+00  2.58504768200447E-03
 cg2d: Sum(rhs),rhsMax =  -2.43940633473100E+00  2.63568094795304E-03
 cg2d: Sum(rhs),rhsMax =  -3.03203006170072E+00  2.68092818531931E-03
 cg2d: Sum(rhs),rhsMax =  -3.40991311078469E+00  2.73286306188882E-03
 cg2d: Sum(rhs),rhsMax =  -3.48046022606727E+00  2.80943924623861E-03
 cg2d: Sum(rhs),rhsMax =  -3.32063072739301E+00  2.84054010874982E-03
 cg2d: Sum(rhs),rhsMax =  -2.96079447614783E+00  2.82589059794300E-03
 cg2d: Sum(rhs),rhsMax =  -2.32992817100251E+00  2.92147970138629E-03
 cg2d: Sum(rhs),rhsMax =  -1.72242461270232E+00  2.94384958142137E-03
 cg2d: Sum(rhs),rhsMax =  -1.21221908079921E+00  2.89157774941400E-03
 cg2d: Sum(rhs),rhsMax =  -8.69698435787077E-01  2.78046452351782E-03
 cg2d: Sum(rhs),rhsMax =  -7.64867848437226E-01  2.63730944750424E-03
 cg2d: Sum(rhs),rhsMax =  -9.31747869380941E-01  2.54529705590214E-03
 cg2d: Sum(rhs),rhsMax =  -1.31074340612929E+00  2.59464770984973E-03
 cg2d: Sum(rhs),rhsMax =  -1.82960844501284E+00  2.67470090748861E-03
 cg2d: Sum(rhs),rhsMax =  -2.36415410144849E+00  2.77096214863126E-03
 cg2d: Sum(rhs),rhsMax =  -2.80794780114905E+00  2.86583708827707E-03
 cg2d: Sum(rhs),rhsMax =  -3.09076538470051E+00  2.94225356931818E-03
 cg2d: Sum(rhs),rhsMax =  -3.17911024445279E+00  2.98708409794450E-03
 cg2d: Sum(rhs),rhsMax =  -3.06968981551283E+00  2.99369704662786E-03
 cg2d: Sum(rhs),rhsMax =  -2.74200040769615E+00  3.00868109588525E-03
 cg2d: Sum(rhs),rhsMax =  -2.22987027404194E+00  3.08320489986548E-03
 cg2d: Sum(rhs),rhsMax =  -1.72892392371616E+00  3.09216595956310E-03
 cg2d: Sum(rhs),rhsMax =  -1.30661133747821E+00  3.03707917430574E-03
 cg2d: Sum(rhs),rhsMax =  -1.02724595058464E+00  2.93201247931643E-03
 cg2d: Sum(rhs),rhsMax =  -9.49612161717938E-01  2.80059561559649E-03
 cg2d: Sum(rhs),rhsMax =  -1.10546685879609E+00  2.68802015606597E-03
 cg2d: Sum(rhs),rhsMax =  -1.41911849918616E+00  2.73183507710070E-03
 cg2d: Sum(rhs),rhsMax =  -1.85263655942645E+00  2.80075127953047E-03
 cg2d: Sum(rhs),rhsMax =  -2.30607108464669E+00  2.88121988326139E-03
 cg2d: Sum(rhs),rhsMax =  -2.69038335916195E+00  2.95745902594565E-03
 cg2d: Sum(rhs),rhsMax =  -2.94313287793007E+00  3.01465313629004E-03
 cg2d: Sum(rhs),rhsMax =  -3.03123926751256E+00  3.04190029843395E-03
 cg2d: Sum(rhs),rhsMax =  -2.94785325418676E+00  3.03433144121311E-03
 cg2d: Sum(rhs),rhsMax =  -2.61356669182192E+00  3.10365970240271E-03
 cg2d: Sum(rhs),rhsMax =  -2.18161330168848E+00  3.16115497067356E-03
 cg2d: Sum(rhs),rhsMax =  -1.75526135584076E+00  3.15966305423553E-03
 cg2d: Sum(rhs),rhsMax =  -1.39603754622528E+00  3.10114904050093E-03
 cg2d: Sum(rhs),rhsMax =  -1.16177151200118E+00  2.99876537154225E-03
 cg2d: Sum(rhs),rhsMax =  -1.10293758913131E+00  2.87411074803497E-03
 cg2d: Sum(rhs),rhsMax =  -1.24975147222174E+00  2.75286345905339E-03
 cg2d: Sum(rhs),rhsMax =  -1.53840875949498E+00  2.75098220915284E-03
 cg2d: Sum(rhs),rhsMax =  -1.91301879076281E+00  2.81271673481238E-03
 cg2d: Sum(rhs),rhsMax =  -2.30705946942144E+00  2.88449385548846E-03
 cg2d: Sum(rhs),rhsMax =  -2.64297559605615E+00  2.95188729945056E-03
 cg2d: Sum(rhs),rhsMax =  -2.86495135937583E+00  3.00154122972349E-03
 cg2d: Sum(rhs),rhsMax =  -2.94238815365620E+00  3.02377930534081E-03
 cg2d: Sum(rhs),rhsMax =  -2.84207331970729E+00  3.04217197861132E-03
 cg2d: Sum(rhs),rhsMax =  -2.51902193284407E+00  3.13830796198609E-03
 cg2d: Sum(rhs),rhsMax =  -2.14123746551892E+00  3.18959314707758E-03
 cg2d: Sum(rhs),rhsMax =  -1.76835934478541E+00  3.18714923635668E-03
 cg2d: Sum(rhs),rhsMax =  -1.45590364727601E+00  3.13272220484003E-03
 cg2d: Sum(rhs),rhsMax =  -1.25508086028059E+00  3.03818408506544E-03
 cg2d: Sum(rhs),rhsMax =  -1.20874919878993E+00  2.92305983244464E-03
 cg2d: Sum(rhs),rhsMax =  -1.34034328078915E+00  2.81059297418776E-03
 cg2d: Sum(rhs),rhsMax =  -1.62624341006296E+00  2.74190578476218E-03
(PID.TID 0000.0001) Did not write pickup because writePickupAtEnd = FALSE
 --> objf_test(bi,bj)   =  0.509071969914173D-01
 --> objf_tracer(bi,bj) =  0.000000000000000D+00
 --> objf_atl(bi,bj)    =  0.000000000000000D+00
  local fc =  0.509071969914173D-01
 global fc =  0.509071969914173D-01
 ph-check fcpertplus =   5.09071969914172764E-002
 ph-check fcpertminus =   5.09071982061511247E-002
(PID.TID 0000.0001) INI_CG2D: CG2D normalisation factor =  1.9999999999999996E-04
(PID.TID 0000.0001) 
                     ctrl_depth_ini: ctrl update R_low,
                                     adding the control vector.
(PID.TID 0000.0001) Start initial hydrostatic pressure computation
(PID.TID 0000.0001) Pressure is predetermined for buoyancyRelation OCEANIC
(PID.TID 0000.0001) 
(PID.TID 0000.0001) // =======================================================
(PID.TID 0000.0001) // Model current state
(PID.TID 0000.0001) // =======================================================
(PID.TID 0000.0001) 
(PID.TID 0000.0001) SOLVE_FOR_PRESSURE: putPmEinXvector =    F
 cg2d: Sum(rhs),rhsMax =   0.00000000000000E+00  0.00000000000000E+00
 cg2d: Sum(rhs),rhsMax =  -2.49999999999995E+01  6.03492218443701E-05
 cg2d: Sum(rhs),rhsMax =  -1.81034404639062E+01  2.18766023587219E-04
 cg2d: Sum(rhs),rhsMax =  -1.54955562832116E+01  4.32479836297448E-04
 cg2d: Sum(rhs),rhsMax =  -1.41111452331022E+01  6.49958988317671E-04
 cg2d: Sum(rhs),rhsMax =  -1.31144322335570E+01  8.30737102814143E-04
 cg2d: Sum(rhs),rhsMax =  -1.21209090328860E+01  9.52510661947269E-04
 cg2d: Sum(rhs),rhsMax =  -1.07124742368145E+01  1.02806631168500E-03
 cg2d: Sum(rhs),rhsMax =  -7.41375936703082E+00  1.27086596330258E-03
 cg2d: Sum(rhs),rhsMax =  -4.70217533480947E+00  1.51019014089336E-03
 cg2d: Sum(rhs),rhsMax =  -2.72440685938896E+00  1.65833738306772E-03
 cg2d: Sum(rhs),rhsMax =  -1.27958669042753E+00  1.70565508828189E-03
 cg2d: Sum(rhs),rhsMax =  -3.29564698953967E-01  1.66071960624913E-03
 cg2d: Sum(rhs),rhsMax =   5.21320410427353E-02  1.54812756186641E-03
 cg2d: Sum(rhs),rhsMax =  -2.86625373649855E-01  1.40338816143459E-03
 cg2d: Sum(rhs),rhsMax =  -1.30315843702235E+00  1.44268599222124E-03
 cg2d: Sum(rhs),rhsMax =  -2.68067691171500E+00  1.50836886080861E-03
 cg2d: Sum(rhs),rhsMax =  -4.07407454852865E+00  1.58424366286873E-03
 cg2d: Sum(rhs),rhsMax =  -5.18272350010062E+00  1.66593592176588E-03
 cg2d: Sum(rhs),rhsMax =  -5.80990600658770E+00  1.74846174611339E-03
 cg2d: Sum(rhs),rhsMax =  -5.87740630051675E+00  1.82725970385643E-03
 cg2d: Sum(rhs),rhsMax =  -5.41358313732307E+00  1.89900433812373E-03
 cg2d: Sum(rhs),rhsMax =  -4.53080678819713E+00  1.96213933608146E-03
 cg2d: Sum(rhs),rhsMax =  -3.22587898364013E+00  2.12611203000066E-03
 cg2d: Sum(rhs),rhsMax =  -2.04447211493434E+00  2.24837954167548E-03
 cg2d: Sum(rhs),rhsMax =  -1.10818137022355E+00  2.30404049589795E-03
 cg2d: Sum(rhs),rhsMax =  -4.90484878655080E-01  2.29576532851833E-03
 cg2d: Sum(rhs),rhsMax =  -2.61247062228202E-01  2.23814842623790E-03
 cg2d: Sum(rhs),rhsMax =  -4.50921970354020E-01  2.26266905348524E-03
 cg2d: Sum(rhs),rhsMax =  -1.00469611207828E+00  2.31946121265206E-03
 cg2d: Sum(rhs),rhsMax =  -1.78565332651904E+00  2.37599939623464E-03
 cg2d: Sum(rhs),rhsMax =  -2.62429310868250E+00  2.42805541261326E-03
 cg2d: Sum(rhs),rhsMax =  -3.35748489546495E+00  2.47123042691397E-03
 cg2d: Sum(rhs),rhsMax =  -3.85508921358438E+00  2.50195595800576E-03
 cg2d: Sum(rhs),rhsMax =  -4.03589982111372E+00  2.51830319824486E-03
 cg2d: Sum(rhs),rhsMax =  -3.87512852084857E+00  2.52047516211531E-03
 cg2d: Sum(rhs),rhsMax =  -3.40600372346852E+00  2.51092918728667E-03
 cg2d: Sum(rhs),rhsMax =  -2.61682439423306E+00  2.58874090677525E-03
 cg2d: Sum(rhs),rhsMax =  -1.83238709114125E+00  2.61669733536733E-03
 cg2d: Sum(rhs),rhsMax =  -1.17513335772008E+00  2.56005950033150E-03
 cg2d: Sum(rhs),rhsMax =  -7.11994608321558E-01  2.47855831097288E-03
 cg2d: Sum(rhs),rhsMax =  -5.26422151819454E-01  2.47042088783630E-03
 cg2d: Sum(rhs),rhsMax =  -6.78930217870641E-01  2.49676866383865E-03
 cg2d: Sum(rhs),rhsMax =  -1.12673723161790E+00  2.53652607310043E-03
 cg2d: Sum(rhs),rhsMax =  -1.75981627709381E+00  2.58504759490572E-03
 cg2d: Sum(rhs),rhsMax =  -2.43940639466247E+00  2.63568085669940E-03
 cg2d: Sum(rhs),rhsMax =  -3.03203014341871E+00  2.68092808986124E-03
 cg2d: Sum(rhs),rhsMax =  -3.40991312629334E+00  2.73286302708080E-03
 cg2d: Sum(rhs),rhsMax =  -3.48046023864915E+00  2.80943921237284E-03
 cg2d: Sum(rhs),rhsMax =  -3.32063073436649E+00  2.84054007598129E-03
 cg2d: Sum(rhs),rhsMax =  -2.96079447581945E+00  2.82589056590414E-03
 cg2d: Sum(rhs),rhsMax =  -2.32992805110057E+00  2.92147980756256E-03
 cg2d: Sum(rhs),rhsMax =  -1.72242451121519E+00  2.94384969078490E-03
 cg2d: Sum(rhs),rhsMax =  -1.21221899249595E+00  2.89157786249023E-03
 cg2d: Sum(rhs),rhsMax =  -8.69698353658045E-01  2.78046464060472E-03
 cg2d: Sum(rhs),rhsMax =  -7.64867762055374E-01  2.63730956861866E-03
 cg2d: Sum(rhs),rhsMax =  -9.31747829459435E-01  2.54529701018972E-03
 cg2d: Sum(rhs),rhsMax =  -1.31074337170216E+00  2.59464766082787E-03
 cg2d: Sum(rhs),rhsMax =  -1.82960841928811E+00  2.67470085584755E-03
 cg2d: Sum(rhs),rhsMax =  -2.36415408446773E+00  2.77096209522535E-03
 cg2d: Sum(rhs),rhsMax =  -2.80794779032074E+00  2.86583703392517E-03
 cg2d: Sum(rhs),rhsMax =  -3.09076537612250E+00  2.94225351461711E-03
 cg2d: Sum(rhs),rhsMax =  -3.17911023405463E+00  2.98708404313567E-03
 cg2d: Sum(rhs),rhsMax =  -3.06968979962092E+00  2.99369699154474E-03
 cg2d: Sum(rhs),rhsMax =  -2.74200020507170E+00  3.00868123491530E-03
 cg2d: Sum(rhs),rhsMax =  -2.22987009397782E+00  3.08320504095366E-03
 cg2d: Sum(rhs),rhsMax =  -1.72892376151900E+00  3.09216610324040E-03
 cg2d: Sum(rhs),rhsMax =  -1.30661118674522E+00  3.03707932100747E-03
 cg2d: Sum(rhs),rhsMax =  -1.02724580272742E+00  2.93201262928773E-03
 cg2d: Sum(rhs),rhsMax =  -9.49612005077286E-01  2.80059576883641E-03
 cg2d: Sum(rhs),rhsMax =  -1.10546677497848E+00  2.68802008199298E-03
 cg2d: Sum(rhs),rhsMax =  -1.41911842144821E+00  2.73183500020880E-03
 cg2d: Sum(rhs),rhsMax =  -1.85263649161674E+00  2.80075120066171E-03
 cg2d: Sum(rhs),rhsMax =  -2.30607102690828E+00  2.88121980327252E-03
 cg2d: Sum(rhs),rhsMax =  -2.69038330862358E+00  2.95745894552032E-03
 cg2d: Sum(rhs),rhsMax =  -2.94313283010173E+00  3.01465305578584E-03
 cg2d: Sum(rhs),rhsMax =  -3.03123921745957E+00  3.04190021779673E-03
 cg2d: Sum(rhs),rhsMax =  -2.94785319713860E+00  3.03433135997765E-03
 cg2d: Sum(rhs),rhsMax =  -2.61356641343998E+00  3.10365986891570E-03
 cg2d: Sum(rhs),rhsMax =  -2.18161304453803E+00  3.16115513911530E-03
 cg2d: Sum(rhs),rhsMax =  -1.75526111451604E+00  3.15966322520923E-03
 cg2d: Sum(rhs),rhsMax =  -1.39603731319884E+00  3.10114921449450E-03
 cg2d: Sum(rhs),rhsMax =  -1.16177127744049E+00  2.99876554882596E-03
 cg2d: Sum(rhs),rhsMax =  -1.10293734051322E+00  2.87411092860008E-03
 cg2d: Sum(rhs),rhsMax =  -1.24975119504899E+00  2.75286364260430E-03
 cg2d: Sum(rhs),rhsMax =  -1.53840861891692E+00  2.75098210168872E-03
 cg2d: Sum(rhs),rhsMax =  -1.91301866226727E+00  2.81271662544293E-03
 cg2d: Sum(rhs),rhsMax =  -2.30705935332233E+00  2.88449374517163E-03
 cg2d: Sum(rhs),rhsMax =  -2.64297548895748E+00  2.95188718891275E-03
 cg2d: Sum(rhs),rhsMax =  -2.86495125575137E+00  3.00154111931306E-03
 cg2d: Sum(rhs),rhsMax =  -2.94238804722870E+00  3.02377919495687E-03
 cg2d: Sum(rhs),rhsMax =  -2.84207292336307E+00  3.04217216849667E-03
 cg2d: Sum(rhs),rhsMax =  -2.51902156123373E+00  3.13830815270480E-03
 cg2d: Sum(rhs),rhsMax =  -2.14123711518734E+00  3.18959333931137E-03
 cg2d: Sum(rhs),rhsMax =  -1.76835900907390E+00  3.18714943082836E-03
 cg2d: Sum(rhs),rhsMax =  -1.45590331724207E+00  3.13272240217577E-03
 cg2d: Sum(rhs),rhsMax =  -1.25508052482964E+00  3.03818428567470E-03
 cg2d: Sum(rhs),rhsMax =  -1.20874884472713E+00  2.92306003644064E-03
 cg2d: Sum(rhs),rhsMax =  -1.34034289396344E+00  2.81059318136413E-03
 cg2d: Sum(rhs),rhsMax =  -1.62624318885267E+00  2.74190564685294E-03
(PID.TID 0000.0001) Did not write pickup because writePickupAtEnd = FALSE
 --> objf_test(bi,bj)   =  0.509071994208851D-01
 --> objf_tracer(bi,bj) =  0.000000000000000D+00
 --> objf_atl(bi,bj)    =  0.000000000000000D+00
  local fc =  0.509071994208851D-01
 global fc =  0.509071994208851D-01
grad-res -------------------------------
 grad-res     0    9    5    5    1    1    1    1   5.09071982062E-02  5.09071969914E-02  5.09071994209E-02
 grad-res     0    9    9   25    0    1    1    1  -1.21475652448E-05 -1.21473390721E-05  1.86187663599E-05
(PID.TID 0000.0001)  ADM  ref_cost_function      =  5.09071982061511E-02
(PID.TID 0000.0001)  ADM  adjoint_gradient       = -1.21475652448008E-05
(PID.TID 0000.0001)  ADM  finite-diff_grad       = -1.21473390721216E-05
 ph-grd  ierr ---------------------------
 ph-grd  ierr =            0 , icomp =           25 , ichknum =            9
(PID.TID 0000.0001) 
(PID.TID 0000.0001) // =======================================================
(PID.TID 0000.0001) // Gradient check results  >>> START <<<
(PID.TID 0000.0001) // =======================================================
(PID.TID 0000.0001) 
(PID.TID 0000.0001)  EPS =   1.000000E-04
(PID.TID 0000.0001) 
(PID.TID 0000.0001) grdchk output h.p:  Id Itile Jtile LAYER   bi   bj   X(Id)           X(Id)+/-EPS
(PID.TID 0000.0001) grdchk output h.c:  Id  FC                   FC1                  FC2
(PID.TID 0000.0001) grdchk output h.g:  Id     FC1-FC2/(2*EPS)      ADJ GRAD(FC)         1-FDGRD/ADGRD
(PID.TID 0000.0001) 
(PID.TID 0000.0001) grdchk output (p):   1     1     1     1    1    1   0.000000000E+00 -1.000000000E-04
(PID.TID 0000.0001) grdchk output (c):   1  5.0907198206151E-02  5.0907198955527E-02  5.0907197456776E-02
(PID.TID 0000.0001) grdchk output (g):   1     7.4937558935950E-06  7.4937721865404E-06  2.1741981208745E-06
(PID.TID 0000.0001) 
(PID.TID 0000.0001) grdchk output (p):   2     4     1     1    1    1   0.000000000E+00 -1.000000000E-04
(PID.TID 0000.0001) grdchk output (c):   2  5.0907198206151E-02  5.0907198252349E-02  5.0907198159953E-02
(PID.TID 0000.0001) grdchk output (g):   2     4.6198014164167E-07  4.6234704863259E-07  7.9357485249354E-04
(PID.TID 0000.0001) 
(PID.TID 0000.0001) grdchk output (p):   3     2     2     1    1    1   0.000000000E+00 -1.000000000E-04
(PID.TID 0000.0001) grdchk output (c):   3  5.0907198206151E-02  5.0907198237966E-02  5.0907198174337E-02
(PID.TID 0000.0001) grdchk output (g):   3     3.1814412215780E-07  3.1781198524847E-07 -1.0450735804604E-03
(PID.TID 0000.0001) 
(PID.TID 0000.0001) grdchk output (p):   4     5     2     1    1    1   0.000000000E+00 -1.000000000E-04
(PID.TID 0000.0001) grdchk output (c):   4  5.0907198206151E-02  5.0907198315297E-02  5.0907198097005E-02
(PID.TID 0000.0001) grdchk output (g):   4     1.0914594575362E-06  1.0913187671765E-06 -1.2891774971768E-04
(PID.TID 0000.0001) 
(PID.TID 0000.0001) grdchk output (p):   5     3     3     1    1    1   0.000000000E+00 -1.000000000E-04
(PID.TID 0000.0001) grdchk output (c):   5  5.0907198206151E-02  5.0907198507285E-02  5.0907197905017E-02
(PID.TID 0000.0001) grdchk output (g):   5     3.0113400661946E-06  3.0140176974983E-06  8.8839269452257E-04
(PID.TID 0000.0001) 
(PID.TID 0000.0001) grdchk output (p):   6     1     4     1    1    1   0.000000000E+00 -1.000000000E-04
(PID.TID 0000.0001) grdchk output (c):   6  5.0907198206151E-02  5.0907198224080E-02  5.0907198188222E-02
(PID.TID 0000.0001) grdchk output (g):   6     1.7928939582967E-07  1.7906941698807E-07 -1.2284556755047E-03
(PID.TID 0000.0001) 
(PID.TID 0000.0001) grdchk output (p):   7     4     4     1    1    1   0.000000000E+00 -1.000000000E-04
(PID.TID 0000.0001) grdchk output (c):   7  5.0907198206151E-02  5.0907198179023E-02  5.0907198233279E-02
(PID.TID 0000.0001) grdchk output (g):   7    -2.7127942253680E-07 -2.7153524223629E-07  9.4212337736699E-04
(PID.TID 0000.0001) 
(PID.TID 0000.0001) grdchk output (p):   8     2     5     1    1    1   0.000000000E+00 -1.000000000E-04
(PID.TID 0000.0001) grdchk output (c):   8  5.0907198206151E-02  5.0907198663135E-02  5.0907197749168E-02
(PID.TID 0000.0001) grdchk output (g):   8     4.5698364536939E-06  4.5700422318285E-06  4.5027622094684E-05
(PID.TID 0000.0001) 
(PID.TID 0000.0001) grdchk output (p):   9     5     5     1    1    1   0.000000000E+00 -1.000000000E-04
(PID.TID 0000.0001) grdchk output (c):   9  5.0907198206151E-02  5.0907196991417E-02  5.0907199420885E-02
(PID.TID 0000.0001) grdchk output (g):   9    -1.2147339072122E-05 -1.2147565244801E-05  1.8618766359890E-05
(PID.TID 0000.0001) 
(PID.TID 0000.0001) // =======================================================
(PID.TID 0000.0001) // Gradient check results  >>> END <<<
(PID.TID 0000.0001) // =======================================================
(PID.TID 0000.0001) 
(PID.TID 0000.0001)   Seconds in section "ALL                    [THE_MODEL_MAIN]":
(PID.TID 0000.0001)           User time:   2.8399999999999999
(PID.TID 0000.0001)         System time:  5.00000000000000028E-002
(PID.TID 0000.0001)     Wall clock time:   2.9134058952331543
(PID.TID 0000.0001)          No. starts:           1
(PID.TID 0000.0001)           No. stops:           1
(PID.TID 0000.0001)   Seconds in section "INITIALISE_FIXED       [THE_MODEL_MAIN]":
(PID.TID 0000.0001)           User time:  1.00000000000000002E-002
(PID.TID 0000.0001)         System time:   0.0000000000000000
(PID.TID 0000.0001)     Wall clock time:  2.21791267395019531E-002
(PID.TID 0000.0001)          No. starts:           1
(PID.TID 0000.0001)           No. stops:           1
(PID.TID 0000.0001)   Seconds in section "ADTHE_MAIN_LOOP          [ADJOINT RUN]":
(PID.TID 0000.0001)           User time:  0.71999999999999997
(PID.TID 0000.0001)         System time:  1.00000000000000002E-002
(PID.TID 0000.0001)     Wall clock time:  0.73984193801879883
(PID.TID 0000.0001)          No. starts:           1
(PID.TID 0000.0001)           No. stops:           1
(PID.TID 0000.0001)   Seconds in section "LOAD_FIELDS_DRIVER  [FORWARD_STEP]":
(PID.TID 0000.0001)           User time:  1.99999999999995737E-002
(PID.TID 0000.0001)         System time:  9.99999999999999500E-003
(PID.TID 0000.0001)     Wall clock time:  5.18910884857177734E-002
(PID.TID 0000.0001)          No. starts:        2000
(PID.TID 0000.0001)           No. stops:        2000
(PID.TID 0000.0001)   Seconds in section "EXTERNAL_FLDS_LOAD [LOAD_FLDS_DRIVER]":
(PID.TID 0000.0001)           User time:   0.0000000000000000
(PID.TID 0000.0001)         System time:  9.99999999999999500E-003
(PID.TID 0000.0001)     Wall clock time:  1.91626548767089844E-002
(PID.TID 0000.0001)          No. starts:        2200
(PID.TID 0000.0001)           No. stops:        2200
(PID.TID 0000.0001)   Seconds in section "DO_ATMOSPHERIC_PHYS [FORWARD_STEP]":
(PID.TID 0000.0001)           User time:   0.0000000000000000
(PID.TID 0000.0001)         System time:   0.0000000000000000
(PID.TID 0000.0001)     Wall clock time:  1.73454284667968750E-002
(PID.TID 0000.0001)          No. starts:        2000
(PID.TID 0000.0001)           No. stops:        2000
(PID.TID 0000.0001)   Seconds in section "DO_OCEANIC_PHYS     [FORWARD_STEP]":
(PID.TID 0000.0001)           User time:  0.13999999999999924
(PID.TID 0000.0001)         System time:  1.00000000000000019E-002
(PID.TID 0000.0001)     Wall clock time:  0.12103080749511719
(PID.TID 0000.0001)          No. starts:        2000
(PID.TID 0000.0001)           No. stops:        2000
(PID.TID 0000.0001)   Seconds in section "THERMODYNAMICS      [FORWARD_STEP]":
(PID.TID 0000.0001)           User time:  0.47999999999999332
(PID.TID 0000.0001)         System time:   0.0000000000000000
(PID.TID 0000.0001)     Wall clock time:  0.44074296951293945
(PID.TID 0000.0001)          No. starts:        2000
(PID.TID 0000.0001)           No. stops:        2000
(PID.TID 0000.0001)   Seconds in section "DYNAMICS            [FORWARD_STEP]":
(PID.TID 0000.0001)           User time:  0.86999999999998900
(PID.TID 0000.0001)         System time:   0.0000000000000000
(PID.TID 0000.0001)     Wall clock time:  0.87724804878234863
(PID.TID 0000.0001)          No. starts:        2000
(PID.TID 0000.0001)           No. stops:        2000
(PID.TID 0000.0001)   Seconds in section "SOLVE_FOR_PRESSURE  [FORWARD_STEP]":
(PID.TID 0000.0001)           User time:  0.23999999999999622
(PID.TID 0000.0001)         System time:   0.0000000000000000
(PID.TID 0000.0001)     Wall clock time:  0.27731347084045410
(PID.TID 0000.0001)          No. starts:        2000
(PID.TID 0000.0001)           No. stops:        2000
(PID.TID 0000.0001)   Seconds in section "MOM_CORRECTION_STEP [FORWARD_STEP]":
(PID.TID 0000.0001)           User time:  3.99999999999991473E-002
(PID.TID 0000.0001)         System time:   0.0000000000000000
(PID.TID 0000.0001)     Wall clock time:  6.97612762451171875E-002
(PID.TID 0000.0001)          No. starts:        2000
(PID.TID 0000.0001)           No. stops:        2000
(PID.TID 0000.0001)   Seconds in section "TRC_CORRECTION_STEP [FORWARD_STEP]":
(PID.TID 0000.0001)           User time:  2.99999999999998046E-002
(PID.TID 0000.0001)         System time:   0.0000000000000000
(PID.TID 0000.0001)     Wall clock time:  3.14126014709472656E-002
(PID.TID 0000.0001)          No. starts:        2000
(PID.TID 0000.0001)           No. stops:        2000
(PID.TID 0000.0001)   Seconds in section "BLOCKING_EXCHANGES  [FORWARD_STEP]":
(PID.TID 0000.0001)           User time:  6.99999999999993960E-002
(PID.TID 0000.0001)         System time:   0.0000000000000000
(PID.TID 0000.0001)     Wall clock time:  7.58266448974609375E-002
(PID.TID 0000.0001)          No. starts:        2000
(PID.TID 0000.0001)           No. stops:        2000
(PID.TID 0000.0001)   Seconds in section "DO_STATEVARS_TAVE   [FORWARD_STEP]":
(PID.TID 0000.0001)           User time:  9.99999999999978684E-003
(PID.TID 0000.0001)         System time:   0.0000000000000000
(PID.TID 0000.0001)     Wall clock time:  1.78596973419189453E-002
(PID.TID 0000.0001)          No. starts:        2000
(PID.TID 0000.0001)           No. stops:        2000
(PID.TID 0000.0001)   Seconds in section "MONITOR             [FORWARD_STEP]":
(PID.TID 0000.0001)           User time:  2.99999999999993605E-002
(PID.TID 0000.0001)         System time:  9.99999999999999500E-003
(PID.TID 0000.0001)     Wall clock time:  2.21140384674072266E-002
(PID.TID 0000.0001)          No. starts:        2000
(PID.TID 0000.0001)           No. stops:        2000
(PID.TID 0000.0001)   Seconds in section "COST_TILE           [FORWARD_STEP]":
(PID.TID 0000.0001)           User time:  5.99999999999987210E-002
(PID.TID 0000.0001)         System time:   0.0000000000000000
(PID.TID 0000.0001)     Wall clock time:  4.30691242218017578E-002
(PID.TID 0000.0001)          No. starts:        2000
(PID.TID 0000.0001)           No. stops:        2000
(PID.TID 0000.0001)   Seconds in section "DO_THE_MODEL_IO     [FORWARD_STEP]":
(PID.TID 0000.0001)           User time:  4.99999999999993783E-002
(PID.TID 0000.0001)         System time:   0.0000000000000000
(PID.TID 0000.0001)     Wall clock time:  1.89499855041503906E-002
(PID.TID 0000.0001)          No. starts:        2000
(PID.TID 0000.0001)           No. stops:        2000
(PID.TID 0000.0001)   Seconds in section "DO_WRITE_PICKUP     [FORWARD_STEP]":
(PID.TID 0000.0001)           User time:  9.99999999999978684E-003
(PID.TID 0000.0001)         System time:   0.0000000000000000
(PID.TID 0000.0001)     Wall clock time:  1.87492370605468750E-002
(PID.TID 0000.0001)          No. starts:        2000
(PID.TID 0000.0001)           No. stops:        2000
(PID.TID 0000.0001)   Seconds in section "CTRL_PACK           [THE_MODEL_MAIN]":
(PID.TID 0000.0001)           User time:   0.0000000000000000
(PID.TID 0000.0001)         System time:   0.0000000000000000
(PID.TID 0000.0001)     Wall clock time:  4.37974929809570313E-004
(PID.TID 0000.0001)          No. starts:           1
(PID.TID 0000.0001)           No. stops:           1
(PID.TID 0000.0001)   Seconds in section "CTRL_PACK     [THE_MODEL_MAIN]":
(PID.TID 0000.0001)           User time:   0.0000000000000000
(PID.TID 0000.0001)         System time:   0.0000000000000000
(PID.TID 0000.0001)     Wall clock time:  3.96966934204101563E-004
(PID.TID 0000.0001)          No. starts:           1
(PID.TID 0000.0001)           No. stops:           1
(PID.TID 0000.0001)   Seconds in section "GRDCHK_MAIN         [THE_MODEL_MAIN]":
(PID.TID 0000.0001)           User time:   2.1099999999999999
(PID.TID 0000.0001)         System time:  4.00000000000000008E-002
(PID.TID 0000.0001)     Wall clock time:   2.1504838466644287
(PID.TID 0000.0001)          No. starts:           1
(PID.TID 0000.0001)           No. stops:           1
(PID.TID 0000.0001)   Seconds in section "INITIALISE_VARIA    [THE_MAIN_LOOP]":
(PID.TID 0000.0001)           User time:  9.99999999999978684E-003
(PID.TID 0000.0001)         System time:   0.0000000000000000
(PID.TID 0000.0001)     Wall clock time:  1.51441097259521484E-002
(PID.TID 0000.0001)          No. starts:          18
(PID.TID 0000.0001)           No. stops:          18
(PID.TID 0000.0001)   Seconds in section "MAIN LOOP           [THE_MAIN_LOOP]":
(PID.TID 0000.0001)           User time:   2.1000000000000001
(PID.TID 0000.0001)         System time:  3.99999999999999870E-002
(PID.TID 0000.0001)     Wall clock time:   2.1278219223022461
(PID.TID 0000.0001)          No. starts:          18
(PID.TID 0000.0001)           No. stops:          18
(PID.TID 0000.0001)   Seconds in section "FORWARD_STEP        [THE_MAIN_LOOP]":
(PID.TID 0000.0001)           User time:   2.0499999999999563
(PID.TID 0000.0001)         System time:  3.00000000000000128E-002
(PID.TID 0000.0001)     Wall clock time:   2.0987911224365234
(PID.TID 0000.0001)          No. starts:        1800
(PID.TID 0000.0001)           No. stops:        1800
(PID.TID 0000.0001)   Seconds in section "COST_FINAL         [ADJOINT SPIN-DOWN]":
(PID.TID 0000.0001)           User time:   0.0000000000000000
(PID.TID 0000.0001)         System time:   0.0000000000000000
(PID.TID 0000.0001)     Wall clock time:  4.68015670776367188E-004
(PID.TID 0000.0001)          No. starts:          18
(PID.TID 0000.0001)           No. stops:          18
(PID.TID 0000.0001) // ======================================================
(PID.TID 0000.0001) // Tile <-> Tile communication statistics
(PID.TID 0000.0001) // ======================================================
(PID.TID 0000.0001) // o Tile number: 000001
(PID.TID 0000.0001) //         No. X exchanges =              0
(PID.TID 0000.0001) //            Max. X spins =              0
(PID.TID 0000.0001) //            Min. X spins =     1000000000
(PID.TID 0000.0001) //          Total. X spins =              0
(PID.TID 0000.0001) //            Avg. X spins =       0.00E+00
(PID.TID 0000.0001) //         No. Y exchanges =              0
(PID.TID 0000.0001) //            Max. Y spins =              0
(PID.TID 0000.0001) //            Min. Y spins =     1000000000
(PID.TID 0000.0001) //          Total. Y spins =              0
(PID.TID 0000.0001) //            Avg. Y spins =       0.00E+00
(PID.TID 0000.0001) // o Thread number: 000001
(PID.TID 0000.0001) //            No. barriers =         204436
(PID.TID 0000.0001) //      Max. barrier spins =              1
(PID.TID 0000.0001) //      Min. barrier spins =              1
(PID.TID 0000.0001) //     Total barrier spins =         204436
(PID.TID 0000.0001) //      Avg. barrier spins =       1.00E+00
PROGRAM MAIN: Execution ended Normally
