(PID.TID 0000.0001) 
(PID.TID 0000.0001) // ======================================================
(PID.TID 0000.0001) //                      MITgcm UV
(PID.TID 0000.0001) //                      =========
(PID.TID 0000.0001) // ======================================================
(PID.TID 0000.0001) // execution environment starting up...
(PID.TID 0000.0001) 
(PID.TID 0000.0001) // MITgcmUV version:  checkpoint62k
(PID.TID 0000.0001) // Build user:        jmc
(PID.TID 0000.0001) // Build host:        faulks.csail.mit.edu
(PID.TID 0000.0001) // Build date:        Mon Sep 20 17:39:28 EDT 2010
(PID.TID 0000.0001) 
(PID.TID 0000.0001) // =======================================================
(PID.TID 0000.0001) // Execution Environment parameter file "eedata"
(PID.TID 0000.0001) // =======================================================
(PID.TID 0000.0001) ># Example "eedata" file
(PID.TID 0000.0001) ># Lines beginning "#" are comments
(PID.TID 0000.0001) ># nTx - No. threads per process in X
(PID.TID 0000.0001) ># nTy - No. threads per process in Y
(PID.TID 0000.0001) > &EEPARMS
(PID.TID 0000.0001) > useCubedSphereExchange=.TRUE.,
(PID.TID 0000.0001) ># unlimit the stack size for the FIZHI rad code
(PID.TID 0000.0001) >#EH3  useSETRLSTK is commented out (default: false) since, with the g77
(PID.TID 0000.0001) >#EH3  compiler, it causes the model to hang *without* returning -- thus
(PID.TID 0000.0001) >#EH3  killing all our automated g77 testing on, for instance, the ACES
(PID.TID 0000.0001) >#EH3  cluster.
(PID.TID 0000.0001) >#EH3  useSETRLSTK=.TRUE.,
(PID.TID 0000.0001) ># Activate one line below to support 2, 3 or 6 way multi-threading
(PID.TID 0000.0001) >#nTx=2,
(PID.TID 0000.0001) >#nTx=3,
(PID.TID 0000.0001) >#nTx=6,
(PID.TID 0000.0001) > &
(PID.TID 0000.0001) ># Note: Some systems use & as the
(PID.TID 0000.0001) ># namelist terminator. Other systems
(PID.TID 0000.0001) ># use a / character (as shown here).
(PID.TID 0000.0001) 
(PID.TID 0000.0001) // =======================================================
(PID.TID 0000.0001) // Computational Grid Specification ( see files "SIZE.h" )
(PID.TID 0000.0001) //                                  ( and "eedata"       )
(PID.TID 0000.0001) // =======================================================
(PID.TID 0000.0001)      nPx =    1 ; /* No. processes in X */
(PID.TID 0000.0001)      nPy =    1 ; /* No. processes in Y */
(PID.TID 0000.0001)      nSx =    6 ; /* No. tiles in X per process */
(PID.TID 0000.0001)      nSy =    1 ; /* No. tiles in Y per process */
(PID.TID 0000.0001)      sNx =   32 ; /* Tile size in X */
(PID.TID 0000.0001)      sNy =   32 ; /* Tile size in Y */
(PID.TID 0000.0001)      OLx =    2 ; /* Tile overlap distance in X */
(PID.TID 0000.0001)      OLy =    2 ; /* Tile overlap distance in Y */
(PID.TID 0000.0001)      nTx =    1 ; /* No. threads in X per process */
(PID.TID 0000.0001)      nTy =    1 ; /* No. threads in Y per process */
(PID.TID 0000.0001)       Nr =   20 ; /* No. levels in the vertical   */
(PID.TID 0000.0001)       Nx =  192 ; /* Total domain size in X ( = nPx*nSx*sNx ) */
(PID.TID 0000.0001)       Ny =   32 ; /* Total domain size in Y ( = nPy*nSy*sNy ) */
(PID.TID 0000.0001)   nTiles =    6 ; /* Total no. tiles per process ( = nSx*nSy ) */
(PID.TID 0000.0001)   nProcs =    1 ; /* Total no. processes ( = nPx*nPy ) */
(PID.TID 0000.0001) nThreads =    1 ; /* Total no. threads per process ( = nTx*nTy ) */
(PID.TID 0000.0001) usingMPI =    F ; /* Flag used to control whether MPI is in use */
(PID.TID 0000.0001)                   /*  note: To execute a program with MPI calls */
(PID.TID 0000.0001)                   /*  it must be launched appropriately e.g     */
(PID.TID 0000.0001)                   /*  "mpirun -np 64 ......"                    */
(PID.TID 0000.0001) useCoupler=    F ;/* Flag used to control communications with   */
(PID.TID 0000.0001)                   /*  other model components, through a coupler */
(PID.TID 0000.0001) printMapIncludesZeros=    F ; /* print zeros in Std.Output maps */
(PID.TID 0000.0001) maxLengthPrt1D=   65 /* maxLength of 1D array printed to StdOut */
(PID.TID 0000.0001) 
(PID.TID 0000.0001) // ======================================================
(PID.TID 0000.0001) // Mapping of tiles to threads
(PID.TID 0000.0001) // ======================================================
(PID.TID 0000.0001) // -o- Thread   1, tiles (   1:   6,   1:   1)
(PID.TID 0000.0001) 
(PID.TID 0000.0001) W2_READPARMS: file data.exch2 not found
(PID.TID 0000.0001) => use W2_EXCH2 default: regular 6-facets Cube
(PID.TID 0000.0001) W2_useE2ioLayOut=    T ;/* T: use Exch2 glob IO map; F: use model default */
(PID.TID 0000.0001) W2_mapIO        =  -1 ; /* select option for Exch2 global-IO map */
(PID.TID 0000.0001) W2_printMsg     =  -1 ; /* select option for printing information */
(PID.TID 0000.0001) ===== Start setting W2 TOPOLOGY:
(PID.TID 0000.0001)  write to log-file: w2_tile_topology.0000.log
(PID.TID 0000.0001) =====       setting W2 TOPOLOGY: Done
(PID.TID 0000.0001) 
(PID.TID 0000.0001) DEBUG_MSG: ENTERED S/R THE_MODEL_MAIN
(PID.TID 0000.0001) DEBUG_MSG: CALLING S/R INITIALISE_FIXED
(PID.TID 0000.0001) // =======================================================
(PID.TID 0000.0001) // Model parameter file "data"
(PID.TID 0000.0001) // =======================================================
(PID.TID 0000.0001) ># ====================
(PID.TID 0000.0001) ># | Model parameters |
(PID.TID 0000.0001) ># ====================
(PID.TID 0000.0001) >#
(PID.TID 0000.0001) ># Continuous equation parameters
(PID.TID 0000.0001) > &PARM01
(PID.TID 0000.0001) >#tRef=288.8,292.7,298.1,303.8,309.8,316.2,323.2,332.5,356.1,437.4,
(PID.TID 0000.0001) > tRef=286.0,288.0,290.0,292.0,295.0,298.0,301.0,304.0,307.0,310.0,
(PID.TID 0000.0001) >      313.0,316.0,319.5,323.0,327.5,332.0,343.0,356.0,396.0,440.0,
(PID.TID 0000.0001) >#sRef=1.0E-3,5.0E-4,1.E-4,5*1.E-6,1.E-8,1.E-9,
(PID.TID 0000.0001) > sRef=20*0.0,
(PID.TID 0000.0001) > viscAr=0.E1,
(PID.TID 0000.0001) > viscAh=0.E6,
(PID.TID 0000.0001) > viscA4=0.E17,
(PID.TID 0000.0001) > no_slip_sides=.FALSE.,
(PID.TID 0000.0001) > no_slip_bottom=.FALSE.,
(PID.TID 0000.0001) > diffKhT=0.E3,
(PID.TID 0000.0001) > diffKrT=0.,
(PID.TID 0000.0001) > diffK4T=0.E17,
(PID.TID 0000.0001) > diffKrS=0.E2,
(PID.TID 0000.0001) > diffKhS=0.E3,
(PID.TID 0000.0001) > diffK4S=0.E17,
(PID.TID 0000.0001) > buoyancyRelation='ATMOSPHERIC',
(PID.TID 0000.0001) > eosType='IDEALGAS',
(PID.TID 0000.0001) > atm_Rq=0.6078,
(PID.TID 0000.0001) >#Integr_GeoPot=2,
(PID.TID 0000.0001) > rotationPeriod=86400.,
(PID.TID 0000.0001) > gravity=9.81,
(PID.TID 0000.0001) > rhonil=1.0,
(PID.TID 0000.0001) > rhoConst=1.0,
(PID.TID 0000.0001) > rigidLid=.FALSE.,
(PID.TID 0000.0001) > implicitFreeSurface=.TRUE.,
(PID.TID 0000.0001) > exactConserv=.TRUE.,
(PID.TID 0000.0001) > uniformLin_PhiSurf=.FALSE.,
(PID.TID 0000.0001) > staggerTimeStep=.TRUE.,
(PID.TID 0000.0001) > nonHydrostatic=.FALSE.,
(PID.TID 0000.0001) > readBinaryPrec=64,
(PID.TID 0000.0001) > writeBinaryPrec=64,
(PID.TID 0000.0001) > hFacMin=0.2,
(PID.TID 0000.0001) > nonlinFreeSurf=4,
(PID.TID 0000.0001) > select_rStar=2,
(PID.TID 0000.0001) > saltAdvScheme=3,
(PID.TID 0000.0001) > vectorInvariantMomentum=.TRUE.,
(PID.TID 0000.0001) >#- here are the new things:
(PID.TID 0000.0001) > useAbsVorticity=.TRUE.,
(PID.TID 0000.0001) > SadournyCoriolis=.TRUE.,
(PID.TID 0000.0001) > selectKEscheme=3,
(PID.TID 0000.0001) > &
(PID.TID 0000.0001) >
(PID.TID 0000.0001) ># Elliptic solver parameters
(PID.TID 0000.0001) > &PARM02
(PID.TID 0000.0001) > cg2dMaxIters=200,
(PID.TID 0000.0001) >#cg2dTargetResidual=1.E-12,
(PID.TID 0000.0001) > cg2dTargetResWunit=1.E-17,
(PID.TID 0000.0001) > &
(PID.TID 0000.0001) >
(PID.TID 0000.0001) ># Time stepping parameters
(PID.TID 0000.0001) > &PARM03
(PID.TID 0000.0001) > nIter0=0,
(PID.TID 0000.0001) > nTimeSteps=7,
(PID.TID 0000.0001) >#endTime=864000.0,
(PID.TID 0000.0001) > deltaT=120.0,
(PID.TID 0000.0001) > forcing_In_AB=.FALSE.,
(PID.TID 0000.0001) > abEps=0.1,
(PID.TID 0000.0001) > cAdjFreq=0.,
(PID.TID 0000.0001) > pChkptFreq=0.0,
(PID.TID 0000.0001) > ChkptFreq=0.0,
(PID.TID 0000.0001) > dumpFreq=0.0,
(PID.TID 0000.0001) > monitorFreq=1.,
(PID.TID 0000.0001) >#monitorFreq=2678400.,
(PID.TID 0000.0001) > taveFreq=0.0,
(PID.TID 0000.0001) > tave_lastiter=1.,
(PID.TID 0000.0001) ># for daily testing: to save disk space
(PID.TID 0000.0001) > writePickupAtEnd=.FALSE.,
(PID.TID 0000.0001) > &
(PID.TID 0000.0001) >
(PID.TID 0000.0001) ># Gridding parameters
(PID.TID 0000.0001) > &PARM04
(PID.TID 0000.0001) > usingCartesianGrid=.FALSE.,
(PID.TID 0000.0001) > usingSphericalPolarGrid=.FALSE.,
(PID.TID 0000.0001) > usingCurvilinearGrid=.TRUE.,
(PID.TID 0000.0001) > delR=20*5054.,
(PID.TID 0000.0001) > Ro_SeaLevel=101080.,
(PID.TID 0000.0001) > rSphere=6371.E3,
(PID.TID 0000.0001) > &
(PID.TID 0000.0001) >
(PID.TID 0000.0001) ># Input datasets
(PID.TID 0000.0001) > &PARM05
(PID.TID 0000.0001) >#topoFile='topo.cs.bin',
(PID.TID 0000.0001) > uVelInitFile='U.input.20Lev',
(PID.TID 0000.0001) > vVelInitFile='V.input.20Lev',
(PID.TID 0000.0001) > hydrogThetaFile='T.input.20Lev',
(PID.TID 0000.0001) > hydrogSaltFile='RH.input.20Lev',
(PID.TID 0000.0001) > &
(PID.TID 0000.0001) 
(PID.TID 0000.0001) S/R INI_PARMS ; starts to read PARM01
(PID.TID 0000.0001) S/R INI_PARMS ; read PARM01 : OK
(PID.TID 0000.0001) S/R INI_PARMS ; starts to read PARM02
(PID.TID 0000.0001) S/R INI_PARMS ; read PARM02 : OK
(PID.TID 0000.0001) S/R INI_PARMS ; starts to read PARM03
(PID.TID 0000.0001) S/R INI_PARMS ; read PARM03 : OK
(PID.TID 0000.0001) S/R INI_PARMS ; starts to read PARM04
(PID.TID 0000.0001) S/R INI_PARMS ; read PARM04 : OK
(PID.TID 0000.0001) S/R INI_PARMS ; starts to read PARM05
(PID.TID 0000.0001) S/R INI_PARMS ; read PARM05 : OK
(PID.TID 0000.0001)  PACKAGES_BOOT: opening data.pkg
(PID.TID 0000.0001)  OPEN_COPY_DATA_FILE: opening file data.pkg
(PID.TID 0000.0001) // =======================================================
(PID.TID 0000.0001) // Parameter file "data.pkg"
(PID.TID 0000.0001) // =======================================================
(PID.TID 0000.0001) ># Packages
(PID.TID 0000.0001) > &PACKAGES
(PID.TID 0000.0001) > useFIZHI=.TRUE.,
(PID.TID 0000.0001) > useGRIDALT=.TRUE.,
(PID.TID 0000.0001) > useSHAP_FILT=.TRUE.,
(PID.TID 0000.0001) > useDIAGNOSTICS=.TRUE.,
(PID.TID 0000.0001) > useMNC=.TRUE.,
(PID.TID 0000.0001) > &
(PID.TID 0000.0001) 
(PID.TID 0000.0001)  PACKAGES_BOOT: finished reading data.pkg
(PID.TID 0000.0001)  MNC_READPARMS: opening file 'data.mnc'
(PID.TID 0000.0001)  OPEN_COPY_DATA_FILE: opening file data.mnc
(PID.TID 0000.0001) // =======================================================
(PID.TID 0000.0001) // Parameter file "data.mnc"
(PID.TID 0000.0001) // =======================================================
(PID.TID 0000.0001) ># Example "data.mnc" file
(PID.TID 0000.0001) ># Lines beginning "#" are comments
(PID.TID 0000.0001) > &MNC_01
(PID.TID 0000.0001) ># mnc_echo_gvtypes=.FALSE.,
(PID.TID 0000.0001) ># mnc_use_indir=.FALSE.,
(PID.TID 0000.0001) > mnc_use_outdir=.TRUE.,
(PID.TID 0000.0001) > mnc_outdir_str='mnc_test_',
(PID.TID 0000.0001) ># mnc_outdir_date=.TRUE.,
(PID.TID 0000.0001) > monitor_mnc=.FALSE.,
(PID.TID 0000.0001) > pickup_write_mnc=.FALSE.,
(PID.TID 0000.0001) > pickup_read_mnc=.FALSE.,
(PID.TID 0000.0001) > &
(PID.TID 0000.0001) ># Note: Some systems use & as the
(PID.TID 0000.0001) ># namelist terminator. Other systems
(PID.TID 0000.0001) ># use a / character (as shown here).
(PID.TID 0000.0001) 
(PID.TID 0000.0001)  MNC_READPARMS: finished reading data.mnc
(PID.TID 0000.0001)  SHAP_FILT_READPARMS: opening data.shap
(PID.TID 0000.0001)  OPEN_COPY_DATA_FILE: opening file data.shap
(PID.TID 0000.0001) // =======================================================
(PID.TID 0000.0001) // Parameter file "data.shap"
(PID.TID 0000.0001) // =======================================================
(PID.TID 0000.0001) ># Shapiro Filter parameters
(PID.TID 0000.0001) > &SHAP_PARM01
(PID.TID 0000.0001) > shap_filt_uvStar=.FALSE.,
(PID.TID 0000.0001) > shap_filt_TrStagg=.TRUE.,
(PID.TID 0000.0001) > Shap_funct=2,
(PID.TID 0000.0001) > nShapT=4,
(PID.TID 0000.0001) > nShapUV=4,
(PID.TID 0000.0001) > nShapTrPhys=4,
(PID.TID 0000.0001) > nShapUVPhys=4,
(PID.TID 0000.0001) >#Shap_TrLength=115000.,
(PID.TID 0000.0001) >#Shap_uvLength=110000.,
(PID.TID 0000.0001) >#-- here is the new value to add:
(PID.TID 0000.0001) > Shap_uvLength=-1.,
(PID.TID 0000.0001) > Shap_Trtau=5400.,
(PID.TID 0000.0001) > Shap_uvtau=1800.,
(PID.TID 0000.0001) > &
(PID.TID 0000.0001) 
(PID.TID 0000.0001)  SHAP_FILT_READPARMS: finished reading data.shap
(PID.TID 0000.0001) Shap_funct =   /* select Shapiro filter function */
(PID.TID 0000.0001)                       2
(PID.TID 0000.0001)     ;
(PID.TID 0000.0001) nShapT =   /* power of Shapiro filter for Temperat */
(PID.TID 0000.0001)                       4
(PID.TID 0000.0001)     ;
(PID.TID 0000.0001) nShapS =   /* power of Shapiro filter for Salinity */
(PID.TID 0000.0001)                       4
(PID.TID 0000.0001)     ;
(PID.TID 0000.0001) nShapUV =   /* power of Shapiro filter for momentum */
(PID.TID 0000.0001)                       4
(PID.TID 0000.0001)     ;
(PID.TID 0000.0001) shap_filt_uvStar = /* apply filter before Press. Solver */
(PID.TID 0000.0001)                   F
(PID.TID 0000.0001)     ;
(PID.TID 0000.0001) shap_filt_TrStagg = /* filter T,S before calc PhiHyd (staggerTimeStep) */
(PID.TID 0000.0001)                   T
(PID.TID 0000.0001)     ;
(PID.TID 0000.0001) Shap_alwaysExchUV = /* always exch(U,V)    nShapUV times*/
(PID.TID 0000.0001)                   F
(PID.TID 0000.0001)     ;
(PID.TID 0000.0001) Shap_alwaysExchTr = /* always exch(Tracer) nShapTr times*/
(PID.TID 0000.0001)                   F
(PID.TID 0000.0001)     ;
(PID.TID 0000.0001) nShapTrPhys =   /* power of physical-space filter (Tracer) */
(PID.TID 0000.0001)                       4
(PID.TID 0000.0001)     ;
(PID.TID 0000.0001) nShapUVPhys =   /* power of physical-space filter (Momentum) */
(PID.TID 0000.0001)                       4
(PID.TID 0000.0001)     ;
(PID.TID 0000.0001) Shap_Trtau =   /* time scale of Shapiro filter (Tracer) */
(PID.TID 0000.0001)                 5.400000000000000E+03
(PID.TID 0000.0001)     ;
(PID.TID 0000.0001) Shap_TrLength =   /* Length scale of Shapiro filter (Tracer) */
(PID.TID 0000.0001)                 0.000000000000000E+00
(PID.TID 0000.0001)     ;
(PID.TID 0000.0001) Shap_uvtau =   /* time scale of Shapiro filter (Momentum) */
(PID.TID 0000.0001)                 1.800000000000000E+03
(PID.TID 0000.0001)     ;
(PID.TID 0000.0001) Shap_uvLength =   /* Length scale of Shapiro filter (Momentum) */
(PID.TID 0000.0001)                -1.000000000000000E+00
(PID.TID 0000.0001)     ;
(PID.TID 0000.0001) Shap_noSlip =  /* No-slip parameter (0=Free-slip ; 1=No-slip)*/
(PID.TID 0000.0001)                 0.000000000000000E+00
(PID.TID 0000.0001)     ;
(PID.TID 0000.0001) Shap_diagFreq =   /* Frequency^-1 for diagnostic output (s)*/
(PID.TID 0000.0001)                 0.000000000000000E+00
(PID.TID 0000.0001)     ;
(PID.TID 0000.0001)  FIZHI_READPARMS: opening data.fizhi
(PID.TID 0000.0001)  OPEN_COPY_DATA_FILE: opening file data.fizhi
(PID.TID 0000.0001) // =======================================================
(PID.TID 0000.0001) // Parameter file "data.fizhi"
(PID.TID 0000.0001) // =======================================================
(PID.TID 0000.0001) ># Fizhi Parameters
(PID.TID 0000.0001) > &fizhi_list
(PID.TID 0000.0001) > nhmsbegin=000000,
(PID.TID 0000.0001) > nymdbegin=20040321,
(PID.TID 0000.0001) > runlength=0.003,
(PID.TID 0000.0001) > &
(PID.TID 0000.0001) 
(PID.TID 0000.0001)  CHANGING NUMBER OF MODEL TIMESTEPS TO        15
(PID.TID 0000.0001)  CHANGING END TIME TO     1800.00
   Begin Date     20040321   Begin Time            0
 Current Date     20040321 Current Time            0
(PID.TID 0000.0001)  DIAGNOSTICS_READPARMS: opening data.diagnostics
(PID.TID 0000.0001)  OPEN_COPY_DATA_FILE: opening file data.diagnostics
(PID.TID 0000.0001) // =======================================================
(PID.TID 0000.0001) // Parameter file "data.diagnostics"
(PID.TID 0000.0001) // =======================================================
(PID.TID 0000.0001) ># Diagnostic Package Choices
(PID.TID 0000.0001) > &diagnostics_list
(PID.TID 0000.0001) >      diag_mnc = .TRUE.,
(PID.TID 0000.0001) >    dumpatlast = .TRUE.,
(PID.TID 0000.0001) >  frequency(1) = 00.06,
(PID.TID 0000.0001) >   levels(1,1) = 1.,
(PID.TID 0000.0001) >   fields(1,1) = 'RADSWT  ','OSR     ','OLR     ','PLALBEDO','CLDFRC  ','PREACC  ',
(PID.TID 0000.0001) >                 'PRECON  ','EVAP    ','RADSWG  ','ALBNIRDF','ALBVISDF','LWGDOWN ',
(PID.TID 0000.0001) >                 'LWGUP   ','EFLUX   ','HFLUX   ','T2M     ','Q2M     ','UFLUX   ',
(PID.TID 0000.0001) >                 'VFLUX   ','U10M    ','V10M    ','PS      ','OSRCLR  ','OLRCLR  ',
(PID.TID 0000.0001) >                 'SWGCLR  ','LWGCLR  ','RSURF   ',
(PID.TID 0000.0001) >   filename(1) = 'SHfields',
(PID.TID 0000.0001) >  frequency(2) = -00.06,
(PID.TID 0000.0001) >  fileflags(2) = ' P      ',
(PID.TID 0000.0001) >   levels(1,2) = 1000.E+2, 925.E+2, 850.E+2, 700.E+2, 600.E+2, 500.E+2,
(PID.TID 0000.0001) >                  400.E+2, 300.E+2, 250.E+2, 200.E+2, 150.E+2, 100.E+2,
(PID.TID 0000.0001) >                   70.E+2,  50.E+2,  30.E+2,  20.E+2,  10.E+2,
(PID.TID 0000.0001) >   fields(1,2) = 'UVEL    ','VVEL    ','PHIHYD  ','WVEL    ','SALT    ','RELHUM  ',
(PID.TID 0000.0001) >                 'RCENTER ','THETA   ',
(PID.TID 0000.0001) >   filename(2) = 'MLfields',
(PID.TID 0000.0001) >  frequency(3) = -00.06,
(PID.TID 0000.0001) >  fileflags(3) = ' P      ',
(PID.TID 0000.0001) >   levels(1,3) = 1000.E+2, 925.E+2, 850.E+2, 700.E+2, 600.E+2, 500.E+2,
(PID.TID 0000.0001) >                  400.E+2, 300.E+2, 250.E+2, 200.E+2, 150.E+2, 100.E+2,
(PID.TID 0000.0001) >                   70.E+2,  50.E+2,  30.E+2,  20.E+2,  10.E+2,
(PID.TID 0000.0001) >   fields(1,3) = 'UVELSQ  ','VVELSQ  ','THETASQ ','WVELSQ  ','PHIHYDSQ','SALTSQ   ',
(PID.TID 0000.0001) >                 'UV_VEL_C','WU_VEL  ','WV_VEL  ','VVELTH  ','WVELTH  ','VVELSLT  ',
(PID.TID 0000.0001) >                 'WVELSLT ','UVELSLT ','UVELTH  ','UVELPHI ','VVELPHI ',
(PID.TID 0000.0001) >   filename(3) = 'MFfields',
(PID.TID 0000.0001) ># need to add RSURF output with same freq as other interpolated diagnostics
(PID.TID 0000.0001) >  frequency(5) = -00.06,
(PID.TID 0000.0001) >   fields(1,5) = 'RSURF ',
(PID.TID 0000.0001) >   filename(5) = 'snapshot_ps',
(PID.TID 0000.0001) ># frequency(4) = -00.06,
(PID.TID 0000.0001) >#  levels(1,4) = 1.,2.,3.,4.,5.,6.,7.,8.,9.,10.,11.,12.,13.,14.,15.,16.,17.,18.,19.,20.,21.,22.,23.,24.,25.,26.,27.,28.,
(PID.TID 0000.0001) >#  fields(1,4) = 'RADSW   ','RADLW   ','TURBT   ','MOISTT  ','TURBQ   ','MOISTQ  ',
(PID.TID 0000.0001) >#                'TURBU   ','TURBV   ','DPPHYS  ',
(PID.TID 0000.0001) >#  filename(4) = 'PFfields',
(PID.TID 0000.0001) > &
(PID.TID 0000.0001) >
(PID.TID 0000.0001) ># Parameter for Diagnostics of per level statistics:
(PID.TID 0000.0001) >#-----------------
(PID.TID 0000.0001) ># for each output-stream:
(PID.TID 0000.0001) >#  stat_fname(n) : prefix of the output file name (only 8.c long) for outp.stream n
(PID.TID 0000.0001) >#  stat_freq(n):< 0 : write snap-shot output every |stat_freq| seconds
(PID.TID 0000.0001) >#               > 0 : write time-average output every stat_freq seconds
(PID.TID 0000.0001) >#  stat_phase(n)    : write at time = stat_phase + multiple of |stat_freq|
(PID.TID 0000.0001) >#  stat_region(:,n) : list of "regions" (default: 1 region only=global)
(PID.TID 0000.0001) >#  stat_fields(:,n) : list of diagnostics fields (8.c) (see "available_diagnostics.log"
(PID.TID 0000.0001) >#                 file for the list of all available diag. in this particular config)
(PID.TID 0000.0001) >#-----------------
(PID.TID 0000.0001) > &DIAG_STATIS_PARMS
(PID.TID 0000.0001) >     stat_freq(1) = 1.00,
(PID.TID 0000.0001) >    stat_phase(1) = 0.,
(PID.TID 0000.0001) > stat_fields(1,1) = 'RADSWT  ','OSR     ','OLR     ','PLALBEDO','CLDFRC  ','PREACC  ',
(PID.TID 0000.0001) >                    'PRECON  ','EVAP    ','RADSWG  ','ALBNIRDF','ALBVISDF','LWGDOWN ',
(PID.TID 0000.0001) >                    'LWGUP   ','EFLUX   ','HFLUX   ','T2M     ','Q2M     ','UFLUX   ',
(PID.TID 0000.0001) >                    'VFLUX   ','U10M    ','V10M    ','PS      ','OSRCLR  ','OLRCLR  ',
(PID.TID 0000.0001) >                    'SWGCLR  ','LWGCLR  ',
(PID.TID 0000.0001) >    stat_fname(1) = 'GTfields',
(PID.TID 0000.0001) > &
(PID.TID 0000.0001) 
(PID.TID 0000.0001) S/R DIAGNOSTICS_READPARMS, read namelist "diagnostics_list": start
(PID.TID 0000.0001) S/R DIAGNOSTICS_READPARMS, read namelist "diagnostics_list": OK
(PID.TID 0000.0001) S/R DIAGNOSTICS_READPARMS, read namelist "DIAG_STATIS_PARMS": start
(PID.TID 0000.0001) S/R DIAGNOSTICS_READPARMS, read namelist "DIAG_STATIS_PARMS": OK
(PID.TID 0000.0001) -----------------------------------------------------
(PID.TID 0000.0001)  DIAGNOSTICS_READPARMS: active diagnostics summary:
(PID.TID 0000.0001) -----------------------------------------------------
(PID.TID 0000.0001) Creating Output Stream: SHfields
(PID.TID 0000.0001) Output Frequency:          0.060000 ; Phase:           0.000000
(PID.TID 0000.0001)  Averaging Freq.:          0.060000 , Phase:           0.000000 , Cycle:   1
(PID.TID 0000.0001)  missing value:  1.234567000000E+05 ; for integers:   123456789
(PID.TID 0000.0001)  Levels:       1.
(PID.TID 0000.0001)  Fields:    RADSWT   OSR      OLR      PLALBEDO CLDFRC   PREACC   PRECON   EVAP     RADSWG   ALBNIRDF
(PID.TID 0000.0001)  Fields:    ALBVISDF LWGDOWN  LWGUP    EFLUX    HFLUX    T2M      Q2M      UFLUX    VFLUX    U10M
(PID.TID 0000.0001)  Fields:    V10M     PS       OSRCLR   OLRCLR   SWGCLR   LWGCLR   RSURF
(PID.TID 0000.0001) Creating Output Stream: MLfields
(PID.TID 0000.0001) Output Frequency:         -0.060000 ; Phase:           0.030000
(PID.TID 0000.0001)  Averaging Freq.:          0.000000 , Phase:           0.000000 , Cycle:   1
(PID.TID 0000.0001)  missing value:  1.234567000000E+05 ; for integers:   123456789 ; F-Flags=" P      "
(PID.TID 0000.0001)  interp:   1.000E+05 9.250E+04 8.500E+04 7.000E+04 6.000E+04 5.000E+04 4.000E+04 3.000E+04 2.500E+04 2.000E+04
(PID.TID 0000.0001)  interp:   1.500E+04 1.000E+04 7.000E+03 5.000E+03 3.000E+03 2.000E+03 1.000E+03
(PID.TID 0000.0001)  Fields:    UVEL     VVEL     PHIHYD   WVEL     SALT     RELHUM   RCENTER  THETA
(PID.TID 0000.0001) Creating Output Stream: MFfields
(PID.TID 0000.0001) Output Frequency:         -0.060000 ; Phase:           0.030000
(PID.TID 0000.0001)  Averaging Freq.:          0.000000 , Phase:           0.000000 , Cycle:   1
(PID.TID 0000.0001)  missing value:  1.234567000000E+05 ; for integers:   123456789 ; F-Flags=" P      "
(PID.TID 0000.0001)  interp:   1.000E+05 9.250E+04 8.500E+04 7.000E+04 6.000E+04 5.000E+04 4.000E+04 3.000E+04 2.500E+04 2.000E+04
(PID.TID 0000.0001)  interp:   1.500E+04 1.000E+04 7.000E+03 5.000E+03 3.000E+03 2.000E+03 1.000E+03
(PID.TID 0000.0001)  Fields:    UVELSQ   VVELSQ   THETASQ  WVELSQ   PHIHYDSQ SALTSQ   UV_VEL_C WU_VEL   WV_VEL   VVELTH
(PID.TID 0000.0001)  Fields:    WVELTH   VVELSLT  WVELSLT  UVELSLT  UVELTH   UVELPHI  VVELPHI
(PID.TID 0000.0001) Creating Output Stream: snapshot_ps
(PID.TID 0000.0001) Output Frequency:         -0.060000 ; Phase:           0.030000
(PID.TID 0000.0001)  Averaging Freq.:          0.000000 , Phase:           0.000000 , Cycle:   1
(PID.TID 0000.0001)  missing value:  1.234567000000E+05 ; for integers:   123456789
(PID.TID 0000.0001)  Levels:    will be set later
(PID.TID 0000.0001)  Fields:    RSURF
(PID.TID 0000.0001) -----------------------------------------------------
(PID.TID 0000.0001)  DIAGNOSTICS_READPARMS: statistics diags. summary:
(PID.TID 0000.0001) Creating Stats. Output Stream: GTfields
(PID.TID 0000.0001) Output Frequency:          1.000000 ; Phase:           0.000000
(PID.TID 0000.0001)  Regions:   0
(PID.TID 0000.0001)  Fields:    RADSWT   OSR      OLR      PLALBEDO CLDFRC   PREACC   PRECON   EVAP     RADSWG   ALBNIRDF
(PID.TID 0000.0001)  Fields:    ALBVISDF LWGDOWN  LWGUP    EFLUX    HFLUX    T2M      Q2M      UFLUX    VFLUX    U10M
(PID.TID 0000.0001)  Fields:    V10M     PS       OSRCLR   OLRCLR   SWGCLR   LWGCLR
(PID.TID 0000.0001) -----------------------------------------------------
(PID.TID 0000.0001) -----------------------------------------------------
(PID.TID 0000.0001) SET_PARMS: done
(PID.TID 0000.0001) Enter INI_VERTICAL_GRID: setInterFDr=    T ; setCenterDr=    F
(PID.TID 0000.0001) tile:   1 ; Read from file tile001.mitgrid
(PID.TID 0000.0001)   => xC yC dxF dyF rA xG yG dxV dyU rAz dxC dyC rAw rAs dxG dyG
(PID.TID 0000.0001) tile:   2 ; Read from file tile002.mitgrid
(PID.TID 0000.0001)   => xC yC dxF dyF rA xG yG dxV dyU rAz dxC dyC rAw rAs dxG dyG
(PID.TID 0000.0001) tile:   3 ; Read from file tile003.mitgrid
(PID.TID 0000.0001)   => xC yC dxF dyF rA xG yG dxV dyU rAz dxC dyC rAw rAs dxG dyG
(PID.TID 0000.0001) tile:   4 ; Read from file tile004.mitgrid
(PID.TID 0000.0001)   => xC yC dxF dyF rA xG yG dxV dyU rAz dxC dyC rAw rAs dxG dyG
(PID.TID 0000.0001) tile:   5 ; Read from file tile005.mitgrid
(PID.TID 0000.0001)   => xC yC dxF dyF rA xG yG dxV dyU rAz dxC dyC rAw rAs dxG dyG
(PID.TID 0000.0001) tile:   6 ; Read from file tile006.mitgrid
(PID.TID 0000.0001)   => xC yC dxF dyF rA xG yG dxV dyU rAz dxC dyC rAw rAs dxG dyG
(PID.TID 0000.0001) %MON XC_max                       =   1.7854351589505E+02
(PID.TID 0000.0001) %MON XC_min                       =  -1.7854351589505E+02
(PID.TID 0000.0001) %MON XC_mean                      =  -4.6999441375798E-15
(PID.TID 0000.0001) %MON XC_sd                        =   1.0355545336287E+02
(PID.TID 0000.0001) %MON XG_max                       =   1.8000000000000E+02
(PID.TID 0000.0001) %MON XG_min                       =  -1.7708797161002E+02
(PID.TID 0000.0001) %MON XG_mean                      =   1.8603515625000E+00
(PID.TID 0000.0001) %MON XG_sd                        =   1.0357130300504E+02
(PID.TID 0000.0001) %MON DXC_max                      =   3.2375185836900E+05
(PID.TID 0000.0001) %MON DXC_min                      =   1.1353730006923E+05
(PID.TID 0000.0001) %MON DXC_mean                     =   2.8606102525036E+05
(PID.TID 0000.0001) %MON DXC_sd                       =   3.4020997630307E+04
(PID.TID 0000.0001) %MON DXF_max                      =   3.2369947500827E+05
(PID.TID 0000.0001) %MON DXF_min                      =   1.2020820513318E+05
(PID.TID 0000.0001) %MON DXF_mean                     =   2.8605437324820E+05
(PID.TID 0000.0001) %MON DXF_sd                       =   3.4050524252539E+04
(PID.TID 0000.0001) %MON DXG_max                      =   3.2375195872773E+05
(PID.TID 0000.0001) %MON DXG_min                      =   1.0098378008791E+05
(PID.TID 0000.0001) %MON DXG_mean                     =   2.8603818508931E+05
(PID.TID 0000.0001) %MON DXG_sd                       =   3.4140406908005E+04
(PID.TID 0000.0001) %MON DXV_max                      =   3.2380418162750E+05
(PID.TID 0000.0001) %MON DXV_min                      =   8.0152299824136E+04
(PID.TID 0000.0001) %MON DXV_mean                     =   2.8603970633619E+05
(PID.TID 0000.0001) %MON DXV_sd                       =   3.4145142117723E+04
(PID.TID 0000.0001) %MON YC_max                       =   8.7940663871962E+01
(PID.TID 0000.0001) %MON YC_min                       =  -8.7940663871962E+01
(PID.TID 0000.0001) %MON YC_mean                      =   0.0000000000000E+00
(PID.TID 0000.0001) %MON YC_sd                        =   3.8676242969072E+01
(PID.TID 0000.0001) %MON YG_max                       =   9.0000000000000E+01
(PID.TID 0000.0001) %MON YG_min                       =  -9.0000000000000E+01
(PID.TID 0000.0001) %MON YG_mean                      =  -1.1842378929335E-15
(PID.TID 0000.0001) %MON YG_sd                        =   3.8676895860710E+01
(PID.TID 0000.0001) %MON DYC_max                      =   3.2375185836900E+05
(PID.TID 0000.0001) %MON DYC_min                      =   1.1353730006923E+05
(PID.TID 0000.0001) %MON DYC_mean                     =   2.8606102525036E+05
(PID.TID 0000.0001) %MON DYC_sd                       =   3.4020997630307E+04
(PID.TID 0000.0001) %MON DYF_max                      =   3.2369947500827E+05
(PID.TID 0000.0001) %MON DYF_min                      =   1.2020820513318E+05
(PID.TID 0000.0001) %MON DYF_mean                     =   2.8605437324820E+05
(PID.TID 0000.0001) %MON DYF_sd                       =   3.4050524252539E+04
(PID.TID 0000.0001) %MON DYG_max                      =   3.2375195872773E+05
(PID.TID 0000.0001) %MON DYG_min                      =   1.0098378008791E+05
(PID.TID 0000.0001) %MON DYG_mean                     =   2.8603818508931E+05
(PID.TID 0000.0001) %MON DYG_sd                       =   3.4140406908005E+04
(PID.TID 0000.0001) %MON DYU_max                      =   3.2380418162750E+05
(PID.TID 0000.0001) %MON DYU_min                      =   8.0152299824136E+04
(PID.TID 0000.0001) %MON DYU_mean                     =   2.8603970633619E+05
(PID.TID 0000.0001) %MON DYU_sd                       =   3.4145142117723E+04
(PID.TID 0000.0001) %MON RA_max                       =   1.0474757731659E+11
(PID.TID 0000.0001) %MON RA_min                       =   1.5497867056722E+10
(PID.TID 0000.0001) %MON RA_mean                      =   8.2985711332657E+10
(PID.TID 0000.0001) %MON RA_sd                        =   1.7448591913787E+10
(PID.TID 0000.0001) %MON RAW_max                      =   1.0481529828871E+11
(PID.TID 0000.0001) %MON RAW_min                      =   1.1465425741966E+10
(PID.TID 0000.0001) %MON RAW_mean                     =   8.2985711332657E+10
(PID.TID 0000.0001) %MON RAW_sd                       =   1.7503889570793E+10
(PID.TID 0000.0001) %MON RAS_max                      =   1.0481529828871E+11
(PID.TID 0000.0001) %MON RAS_min                      =   1.1465425741966E+10
(PID.TID 0000.0001) %MON RAS_mean                     =   8.2985711332657E+10
(PID.TID 0000.0001) %MON RAS_sd                       =   1.7503889570793E+10
(PID.TID 0000.0001) %MON RAZ_max                      =   1.0484349334619E+11
(PID.TID 0000.0001) %MON RAZ_min                      =   8.8317900612505E+09
(PID.TID 0000.0001) %MON RAZ_mean                     =   8.2992246709235E+10
(PID.TID 0000.0001) %MON RAZ_sd                       =   1.7482297311044E+10
(PID.TID 0000.0001) %MON AngleCS_max                  =   9.9999994756719E-01
(PID.TID 0000.0001) %MON AngleCS_min                  =  -9.9968286884824E-01
(PID.TID 0000.0001) %MON AngleCS_mean                 =   3.3078922539000E-01
(PID.TID 0000.0001) %MON AngleCS_sd                   =   6.2496278958502E-01
(PID.TID 0000.0001) %MON AngleSN_max                  =   9.9968286884824E-01
(PID.TID 0000.0001) %MON AngleSN_min                  =  -9.9999994756719E-01
(PID.TID 0000.0001) %MON AngleSN_mean                 =  -3.3078922539000E-01
(PID.TID 0000.0001) %MON AngleSN_sd                   =   6.2496278958502E-01
(PID.TID 0000.0001) 
(PID.TID 0000.0001) SET_REF_STATE: PhiRef/g [m] at level Center (integer)
(PID.TID 0000.0001)                      and at level Interface (half-int.) :
(PID.TID 0000.0001)  K=  0.5  ;  r=       101080.0  ;  phiRef/g=        0.000
(PID.TID 0000.0001)  K=  1.0  ;  r=        98553.0  ;  phiRef/g=      211.618
(PID.TID 0000.0001)  K=  1.5  ;  r=        96026.0  ;  phiRef/g=      429.193
(PID.TID 0000.0001)  K=  2.0  ;  r=        93499.0  ;  phiRef/g=      648.289
(PID.TID 0000.0001)  K=  2.5  ;  r=        90972.0  ;  phiRef/g=      876.016
(PID.TID 0000.0001)  K=  3.0  ;  r=        88445.0  ;  phiRef/g=     1105.324
(PID.TID 0000.0001)  K=  3.5  ;  r=        85918.0  ;  phiRef/g=     1344.193
(PID.TID 0000.0001)  K=  4.0  ;  r=        83391.0  ;  phiRef/g=     1584.709
(PID.TID 0000.0001)  K=  4.5  ;  r=        80864.0  ;  phiRef/g=     1835.875
(PID.TID 0000.0001)  K=  5.0  ;  r=        78337.0  ;  phiRef/g=     2089.621
(PID.TID 0000.0001)  K=  5.5  ;  r=        75810.0  ;  phiRef/g=     2355.346
(PID.TID 0000.0001)  K=  6.0  ;  r=        73283.0  ;  phiRef/g=     2623.773
(PID.TID 0000.0001)  K=  6.5  ;  r=        70756.0  ;  phiRef/g=     2905.769
(PID.TID 0000.0001)  K=  7.0  ;  r=        68229.0  ;  phiRef/g=     3190.604
(PID.TID 0000.0001)  K=  7.5  ;  r=        65702.0  ;  phiRef/g=     3490.936
(PID.TID 0000.0001)  K=  8.0  ;  r=        63175.0  ;  phiRef/g=     3794.260
(PID.TID 0000.0001)  K=  8.5  ;  r=        60648.0  ;  phiRef/g=     4115.449
(PID.TID 0000.0001)  K=  9.0  ;  r=        58121.0  ;  phiRef/g=     4439.808
(PID.TID 0000.0001)  K=  9.5  ;  r=        55594.0  ;  phiRef/g=     4784.988
(PID.TID 0000.0001)  K= 10.0  ;  r=        53067.0  ;  phiRef/g=     5133.542
(PID.TID 0000.0001)  K= 10.5  ;  r=        50540.0  ;  phiRef/g=     5506.684
(PID.TID 0000.0001)  K= 11.0  ;  r=        48013.0  ;  phiRef/g=     5883.438
(PID.TID 0000.0001)  K= 11.5  ;  r=        45486.0  ;  phiRef/g=     6289.688
(PID.TID 0000.0001)  K= 12.0  ;  r=        42959.0  ;  phiRef/g=     6699.831
(PID.TID 0000.0001)  K= 12.5  ;  r=        40432.0  ;  phiRef/g=     7146.048
(PID.TID 0000.0001)  K= 13.0  ;  r=        37905.0  ;  phiRef/g=     7597.208
(PID.TID 0000.0001)  K= 13.5  ;  r=        35378.0  ;  phiRef/g=     8093.639
(PID.TID 0000.0001)  K= 14.0  ;  r=        32851.0  ;  phiRef/g=     8595.509
(PID.TID 0000.0001)  K= 14.5  ;  r=        30324.0  ;  phiRef/g=     9156.007
(PID.TID 0000.0001)  K= 15.0  ;  r=        27797.0  ;  phiRef/g=     9724.314
(PID.TID 0000.0001)  K= 15.5  ;  r=        25270.0  ;  phiRef/g=    10372.073
(PID.TID 0000.0001)  K= 16.0  ;  r=        22743.0  ;  phiRef/g=    11028.733
(PID.TID 0000.0001)  K= 16.5  ;  r=        20216.0  ;  phiRef/g=    11799.753
(PID.TID 0000.0001)  K= 17.0  ;  r=        17689.0  ;  phiRef/g=    12596.319
(PID.TID 0000.0001)  K= 17.5  ;  r=        15162.0  ;  phiRef/g=    13577.072
(PID.TID 0000.0001)  K= 18.0  ;  r=        12635.0  ;  phiRef/g=    14594.997
(PID.TID 0000.0001)  K= 18.5  ;  r=        10108.0  ;  phiRef/g=    15964.899
(PID.TID 0000.0001)  K= 19.0  ;  r=         7581.0  ;  phiRef/g=    17488.721
(PID.TID 0000.0001)  K= 19.5  ;  r=         5054.0  ;  phiRef/g=    20101.180
(PID.TID 0000.0001)  K= 20.0  ;  r=         2527.0  ;  phiRef/g=    23003.912
(PID.TID 0000.0001)  K= 20.5  ;  r=            0.0  ;  phiRef/g=    38748.049
(PID.TID 0000.0001) // =======================================================
(PID.TID 0000.0001) // Field Model R_low (ini_masks_etc) at iteration          1
(PID.TID 0000.0001) // CMIN =          1.000000000000000E+32
(PID.TID 0000.0001) // CMAX =         -1.000000000000000E+32
(PID.TID 0000.0001) // CINT =          0.000000000000000E+00
(PID.TID 0000.0001) // SYMBOLS (CMIN->CMAX): -abcdefghijklmnopqrstuvwxyz+
(PID.TID 0000.0001) //                  0.0: .
(PID.TID 0000.0001) // RANGE I (Lo:Hi:Step):(    -1:   194:     1)
(PID.TID 0000.0001) // RANGE J (Lo:Hi:Step):(    34:    -1:    -1)
(PID.TID 0000.0001) // RANGE K (Lo:Hi:Step):(   1:   1:   1)
(PID.TID 0000.0001) // =======================================================
(PID.TID 0000.0001) // =======================================================
(PID.TID 0000.0001) // END OF FIELD                                          =
(PID.TID 0000.0001) // =======================================================
(PID.TID 0000.0001) 
(PID.TID 0000.0001) // =======================================================
(PID.TID 0000.0001) // Field Model Ro_surf (ini_masks_etc) at iteration          1
(PID.TID 0000.0001) // CMIN =          1.010800000000000E+05
(PID.TID 0000.0001) // CMAX =          1.010800000000000E+05
(PID.TID 0000.0001) // CINT =          0.000000000000000E+00
(PID.TID 0000.0001) // SYMBOLS (CMIN->CMAX): -abcdefghijklmnopqrstuvwxyz+
(PID.TID 0000.0001) //                  0.0: .
(PID.TID 0000.0001) // RANGE I (Lo:Hi:Step):(    -1:   194:     1)
(PID.TID 0000.0001) // RANGE J (Lo:Hi:Step):(    34:    -1:    -1)
(PID.TID 0000.0001) // RANGE K (Lo:Hi:Step):(   1:   1:   1)
(PID.TID 0000.0001) // =======================================================
(PID.TID 0000.0001) // =======================================================
(PID.TID 0000.0001) // END OF FIELD                                          =
(PID.TID 0000.0001) // =======================================================
(PID.TID 0000.0001) 
(PID.TID 0000.0001) // =======================================================
(PID.TID 0000.0001) // Field hFacC at iteration          1
(PID.TID 0000.0001) // CMIN =          1.000000000000000E+00
(PID.TID 0000.0001) // CMAX =          1.000000000000000E+00
(PID.TID 0000.0001) // CINT =          0.000000000000000E+00
(PID.TID 0000.0001) // SYMBOLS (CMIN->CMAX): -abcdefghijklmnopqrstuvwxyz+
(PID.TID 0000.0001) //                  0.0: .
(PID.TID 0000.0001) // RANGE I (Lo:Hi:Step):(    -1:   194:     1)
(PID.TID 0000.0001) // RANGE J (Lo:Hi:Step):(    34:    -1:    -1)
(PID.TID 0000.0001) // RANGE K (Lo:Hi:Step):(   1:   1:   1)
(PID.TID 0000.0001) // =======================================================
(PID.TID 0000.0001) // =======================================================
(PID.TID 0000.0001) // END OF FIELD                                          =
(PID.TID 0000.0001) // =======================================================
(PID.TID 0000.0001) 
(PID.TID 0000.0001) // =======================================================
(PID.TID 0000.0001) // Field hFacW at iteration          1
(PID.TID 0000.0001) // CMIN =          1.000000000000000E+00
(PID.TID 0000.0001) // CMAX =          1.000000000000000E+00
(PID.TID 0000.0001) // CINT =          0.000000000000000E+00
(PID.TID 0000.0001) // SYMBOLS (CMIN->CMAX): -abcdefghijklmnopqrstuvwxyz+
(PID.TID 0000.0001) //                  0.0: .
(PID.TID 0000.0001) // RANGE I (Lo:Hi:Step):(    -1:   194:     1)
(PID.TID 0000.0001) // RANGE J (Lo:Hi:Step):(    34:    -1:    -1)
(PID.TID 0000.0001) // RANGE K (Lo:Hi:Step):(   1:   1:   1)
(PID.TID 0000.0001) // =======================================================
(PID.TID 0000.0001) // =======================================================
(PID.TID 0000.0001) // END OF FIELD                                          =
(PID.TID 0000.0001) // =======================================================
(PID.TID 0000.0001) 
(PID.TID 0000.0001) // =======================================================
(PID.TID 0000.0001) // Field hFacS at iteration          1
(PID.TID 0000.0001) // CMIN =          1.000000000000000E+00
(PID.TID 0000.0001) // CMAX =          1.000000000000000E+00
(PID.TID 0000.0001) // CINT =          0.000000000000000E+00
(PID.TID 0000.0001) // SYMBOLS (CMIN->CMAX): -abcdefghijklmnopqrstuvwxyz+
(PID.TID 0000.0001) //                  0.0: .
(PID.TID 0000.0001) // RANGE I (Lo:Hi:Step):(    -1:   194:     1)
(PID.TID 0000.0001) // RANGE J (Lo:Hi:Step):(    34:    -1:    -1)
(PID.TID 0000.0001) // RANGE K (Lo:Hi:Step):(   1:   1:   1)
(PID.TID 0000.0001) // =======================================================
(PID.TID 0000.0001) // =======================================================
(PID.TID 0000.0001) // END OF FIELD                                          =
(PID.TID 0000.0001) // =======================================================
(PID.TID 0000.0001) 
(PID.TID 0000.0001) 
(PID.TID 0000.0001) // ===================================
(PID.TID 0000.0001) // GAD parameters :
(PID.TID 0000.0001) // ===================================
(PID.TID 0000.0001) tempAdvScheme =   /* Temp. Horiz.Advection scheme selector */
(PID.TID 0000.0001)                       2
(PID.TID 0000.0001)     ;
(PID.TID 0000.0001) tempVertAdvScheme =   /* Temp. Vert. Advection scheme selector */
(PID.TID 0000.0001)                       2
(PID.TID 0000.0001)     ;
(PID.TID 0000.0001) tempMultiDimAdvec =   /* use Muti-Dim Advec method for Temp */
(PID.TID 0000.0001)                   F
(PID.TID 0000.0001)     ;
(PID.TID 0000.0001) tempSOM_Advection = /* use 2nd Order Moment Advection for Temp */
(PID.TID 0000.0001)                   F
(PID.TID 0000.0001)     ;
(PID.TID 0000.0001) AdamsBashforthGt = /* apply Adams-Bashforth extrapolation on Gt */
(PID.TID 0000.0001)                   T
(PID.TID 0000.0001)     ;
(PID.TID 0000.0001) AdamsBashforth_T = /* apply Adams-Bashforth extrapolation on Temp */
(PID.TID 0000.0001)                   F
(PID.TID 0000.0001)     ;
(PID.TID 0000.0001) saltAdvScheme =   /* Salt. Horiz.advection scheme selector */
(PID.TID 0000.0001)                       3
(PID.TID 0000.0001)     ;
(PID.TID 0000.0001) saltVertAdvScheme =   /* Salt. Vert. Advection scheme selector */
(PID.TID 0000.0001)                       3
(PID.TID 0000.0001)     ;
(PID.TID 0000.0001) saltMultiDimAdvec =   /* use Muti-Dim Advec method for Salt */
(PID.TID 0000.0001)                   F
(PID.TID 0000.0001)     ;
(PID.TID 0000.0001) saltSOM_Advection = /* use 2nd Order Moment Advection for Salt */
(PID.TID 0000.0001)                   F
(PID.TID 0000.0001)     ;
(PID.TID 0000.0001) AdamsBashforthGs = /* apply Adams-Bashforth extrapolation on Gs */
(PID.TID 0000.0001)                   T
(PID.TID 0000.0001)     ;
(PID.TID 0000.0001) AdamsBashforth_S = /* apply Adams-Bashforth extrapolation on Salt */
(PID.TID 0000.0001)                   F
(PID.TID 0000.0001)     ;
(PID.TID 0000.0001) // ===================================
 Setting Alarm for: 20040321  000000,  with frequency:       3000, and Tag: radsw                                                                           
 Setting Alarm for: 20040321  000000,  with frequency:       3000, and Tag: radlw                                                                           
 Setting Alarm for: 20040321  000000,  with frequency:        400, and Tag: turb                                                                            
 Setting Alarm for: 20040321  000000,  with frequency:       1000, and Tag: moist                                                                           
 Setting Alarm for: 20040321  000000,  with frequency:          0, and Tag: pnt                                                                             
 Number of Total Tiles for bi=           1:         2048
 Number of Land  Tiles for bi=           1:            0
 Number of Total Tiles for bi=           2:         2048
 Number of Land  Tiles for bi=           2:            0
 Number of Total Tiles for bi=           3:         2048
 Number of Land  Tiles for bi=           3:            0
 Number of Total Tiles for bi=           4:         2048
 Number of Land  Tiles for bi=           4:            0
 Number of Total Tiles for bi=           5:         2048
 Number of Land  Tiles for bi=           5:            0
 Number of Total Tiles for bi=           6:         2048
 Number of Land  Tiles for bi=           6:            0
(PID.TID 0000.0001) ------------------------------------------------------------
(PID.TID 0000.0001) DIAGNOSTICS_SET_LEVELS: done
(PID.TID 0000.0001)  Total Nb of available Diagnostics: ndiagt=   389
(PID.TID 0000.0001)  write list of available Diagnostics to file: available_diagnostics.log
(PID.TID 0000.0001) SETDIAG: Allocate  1 x  1 Levels for Diagnostic #   214 RADSWT
(PID.TID 0000.0001) SETDIAG: Allocate  1 x  1 Levels for Diagnostic #   237 OSR
(PID.TID 0000.0001) SETDIAG: Allocate  1 x  1 Levels for Diagnostic #   203 OLR
(PID.TID 0000.0001) SETDIAG: Allocate  1 x  1 Levels for Diagnostic #   376 PLALBEDO
(PID.TID 0000.0001) SETDIAG: Allocate  1 x  1 Levels for Diagnostic #   267 CLDFRC
(PID.TID 0000.0001) SETDIAG: Allocate  1 x  1 Levels for Diagnostic #   187 PREACC
(PID.TID 0000.0001) SETDIAG: Allocate  1 x  1 Levels for Diagnostic #   188 PRECON
(PID.TID 0000.0001) SETDIAG: Allocate  1 x  1 Levels for Diagnostic #   218 EVAP
(PID.TID 0000.0001) SETDIAG: Allocate  1 x  1 Levels for Diagnostic #   171 RADSWG
(PID.TID 0000.0001) SETDIAG: Allocate  1 x  1 Levels for Diagnostic #   347 ALBNIRDF
(PID.TID 0000.0001) SETDIAG: Allocate  1 x  1 Levels for Diagnostic #   345 ALBVISDF
(PID.TID 0000.0001) SETDIAG: Allocate  1 x  1 Levels for Diagnostic #   212 LWGDOWN
(PID.TID 0000.0001) SETDIAG: Allocate  1 x  1 Levels for Diagnostic #   202 LWGUP
(PID.TID 0000.0001) SETDIAG: Allocate  1 x  1 Levels for Diagnostic #   166 EFLUX
(PID.TID 0000.0001) SETDIAG: Allocate  1 x  1 Levels for Diagnostic #   165 HFLUX
(PID.TID 0000.0001) SETDIAG: Allocate  1 x  1 Levels for Diagnostic #   271 T2M
(PID.TID 0000.0001) SETDIAG: Allocate  1 x  1 Levels for Diagnostic #   272 Q2M
(PID.TID 0000.0001) SETDIAG: Allocate  1 x  1 Levels for Diagnostic #   167 UFLUX
(PID.TID 0000.0001) SETDIAG: Allocate  1 x  1 Levels for Diagnostic #   168 VFLUX
(PID.TID 0000.0001) SETDIAG: Allocate  1 x  1 Levels for Diagnostic #   273 U10M
(PID.TID 0000.0001) SETDIAG: Allocate  1 x  1 Levels for Diagnostic #   274 V10M
(PID.TID 0000.0001) SETDIAG: Allocate  1 x  1 Levels for Diagnostic #   245 PS
(PID.TID 0000.0001) SETDIAG: Allocate  1 x  1 Levels for Diagnostic #   238 OSRCLR
(PID.TID 0000.0001) SETDIAG: Allocate  1 x  1 Levels for Diagnostic #   204 OLRCLR
(PID.TID 0000.0001) SETDIAG: Allocate  1 x  1 Levels for Diagnostic #   248 SWGCLR
(PID.TID 0000.0001) SETDIAG: Allocate  1 x  1 Levels for Diagnostic #   205 LWGCLR
(PID.TID 0000.0001) SETDIAG: Allocate  1 x  1 Levels for Diagnostic #    88 RSURF
(PID.TID 0000.0001) SETDIAG: Allocate 20 x  1 Levels for Diagnostic #    29 UVEL
(PID.TID 0000.0001) SETDIAG: Allocate 20 x  1 Levels for Diagnostic #    30 VVEL
(PID.TID 0000.0001) SETDIAG: Allocate 20 x  1 Levels for Diagnostic #    65 PHIHYD
(PID.TID 0000.0001) SETDIAG: Allocate 20 x  1 Levels for Diagnostic #    31 WVEL
(PID.TID 0000.0001) SETDIAG: Allocate 20 x  1 Levels for Diagnostic #    27 SALT
(PID.TID 0000.0001) SETDIAG: Allocate 20 x  1 Levels for Diagnostic #    28 RELHUM
(PID.TID 0000.0001) SETDIAG: Allocate 20 x  1 Levels for Diagnostic #    87 RCENTER
(PID.TID 0000.0001) SETDIAG: Allocate 20 x  1 Levels for Diagnostic #    26 THETA
(PID.TID 0000.0001) SETDIAG: Allocate 20 x  1 Levels for Diagnostic #    34 UVELSQ
(PID.TID 0000.0001) SETDIAG: Allocate 20 x  1 Levels for Diagnostic #    35 VVELSQ
(PID.TID 0000.0001) SETDIAG: Allocate 20 x  1 Levels for Diagnostic #    32 THETASQ
(PID.TID 0000.0001) SETDIAG: Allocate 20 x  1 Levels for Diagnostic #    36 WVELSQ
(PID.TID 0000.0001) SETDIAG: Allocate 20 x  1 Levels for Diagnostic #    66 PHIHYDSQ
(PID.TID 0000.0001) SETDIAG: Allocate 20 x  1 Levels for Diagnostic #    33 SALTSQ
(PID.TID 0000.0001) SETDIAG: Allocate 20 x  1 Levels for Diagnostic #    39 UV_VEL_C
(PID.TID 0000.0001) SETDIAG: Allocate 20 x  1 Levels for Diagnostic #    41 WU_VEL
(PID.TID 0000.0001) SETDIAG: Allocate 20 x  1 Levels for Diagnostic #    42 WV_VEL
(PID.TID 0000.0001) SETDIAG: Allocate 20 x  1 Levels for Diagnostic #    53 VVELTH
(PID.TID 0000.0001) SETDIAG: Allocate 20 x  1 Levels for Diagnostic #    54 WVELTH
(PID.TID 0000.0001) SETDIAG: Allocate 20 x  1 Levels for Diagnostic #    56 VVELSLT
(PID.TID 0000.0001) SETDIAG: Allocate 20 x  1 Levels for Diagnostic #    57 WVELSLT
(PID.TID 0000.0001) SETDIAG: Allocate 20 x  1 Levels for Diagnostic #    55 UVELSLT
(PID.TID 0000.0001) SETDIAG: Allocate 20 x  1 Levels for Diagnostic #    52 UVELTH
(PID.TID 0000.0001) SETDIAG: Allocate 20 x  1 Levels for Diagnostic #    58 UVELPHI
(PID.TID 0000.0001) SETDIAG: Allocate 20 x  1 Levels for Diagnostic #    59 VVELPHI
(PID.TID 0000.0001) SETDIAG: Allocate  1 x  1 Levels for Diagnostic #    88 RSURF
(PID.TID 0000.0001)   space allocated for all diagnostics:     528 levels
(PID.TID 0000.0001)   set mate pointer for diag #   167  UFLUX    , Parms: UM      L1 , mate:   168
(PID.TID 0000.0001)   set mate pointer for diag #   168  VFLUX    , Parms: VM      L1 , mate:   167
(PID.TID 0000.0001)   set mate pointer for diag #   273  U10M     , Parms: UM      M1 , mate:   274
(PID.TID 0000.0001)   set mate pointer for diag #   274  V10M     , Parms: VM      M1 , mate:   273
(PID.TID 0000.0001)   set mate pointer for diag #    29  UVEL     , Parms: UUR     MR , mate:    30
(PID.TID 0000.0001)   set mate pointer for diag #    30  VVEL     , Parms: VVR     MR , mate:    29
(PID.TID 0000.0001)   set mate pointer for diag #    34  UVELSQ   , Parms: UURP    MR , mate:    35
(PID.TID 0000.0001)   set mate pointer for diag #    35  VVELSQ   , Parms: VVRP    MR , mate:    34
(PID.TID 0000.0001)   set mate pointer for diag #    39  UV_VEL_C , Parms: UMR     MR , mate:    39
(PID.TID 0000.0001)   set mate pointer for diag #    53  VVELTH   , Parms: VVR     MR , mate:    52
(PID.TID 0000.0001)   set mate pointer for diag #    56  VVELSLT  , Parms: VVR     MR , mate:    55
(PID.TID 0000.0001)   set mate pointer for diag #    55  UVELSLT  , Parms: UUR     MR , mate:    56
(PID.TID 0000.0001)   set mate pointer for diag #    52  UVELTH   , Parms: UUR     MR , mate:    53
(PID.TID 0000.0001)   set mate pointer for diag #    58  UVELPHI  , Parms: UUr     MR , mate:    59
(PID.TID 0000.0001)   set mate pointer for diag #    59  VVELPHI  , Parms: VVr     MR , mate:    58
(PID.TID 0000.0001) DIAGNOSTICS_SET_POINTERS: Set levels for Outp.Stream: snapshot_ps
(PID.TID 0000.0001)  Levels:       1.
(PID.TID 0000.0001) DIAGNOSTICS_SET_POINTERS: done
(PID.TID 0000.0001) ------------------------------------------------------------
(PID.TID 0000.0001) DIAGSTATS_SET_REGIONS: define no region
(PID.TID 0000.0001) ------------------------------------------------------------
(PID.TID 0000.0001) SETDIAG: Allocate  1 Levels for Stats-Diag #   214 RADSWT
(PID.TID 0000.0001) SETDIAG: Allocate  1 Levels for Stats-Diag #   237 OSR
(PID.TID 0000.0001) SETDIAG: Allocate  1 Levels for Stats-Diag #   203 OLR
(PID.TID 0000.0001) SETDIAG: Allocate  1 Levels for Stats-Diag #   376 PLALBEDO
(PID.TID 0000.0001) SETDIAG: Allocate  1 Levels for Stats-Diag #   267 CLDFRC
(PID.TID 0000.0001) SETDIAG: Allocate  1 Levels for Stats-Diag #   187 PREACC
(PID.TID 0000.0001) SETDIAG: Allocate  1 Levels for Stats-Diag #   188 PRECON
(PID.TID 0000.0001) SETDIAG: Allocate  1 Levels for Stats-Diag #   218 EVAP
(PID.TID 0000.0001) SETDIAG: Allocate  1 Levels for Stats-Diag #   171 RADSWG
(PID.TID 0000.0001) SETDIAG: Allocate  1 Levels for Stats-Diag #   347 ALBNIRDF
(PID.TID 0000.0001) SETDIAG: Allocate  1 Levels for Stats-Diag #   345 ALBVISDF
(PID.TID 0000.0001) SETDIAG: Allocate  1 Levels for Stats-Diag #   212 LWGDOWN
(PID.TID 0000.0001) SETDIAG: Allocate  1 Levels for Stats-Diag #   202 LWGUP
(PID.TID 0000.0001) SETDIAG: Allocate  1 Levels for Stats-Diag #   166 EFLUX
(PID.TID 0000.0001) SETDIAG: Allocate  1 Levels for Stats-Diag #   165 HFLUX
(PID.TID 0000.0001) SETDIAG: Allocate  1 Levels for Stats-Diag #   271 T2M
(PID.TID 0000.0001) SETDIAG: Allocate  1 Levels for Stats-Diag #   272 Q2M
(PID.TID 0000.0001) SETDIAG: Allocate  1 Levels for Stats-Diag #   167 UFLUX
(PID.TID 0000.0001) SETDIAG: Allocate  1 Levels for Stats-Diag #   168 VFLUX
(PID.TID 0000.0001) SETDIAG: Allocate  1 Levels for Stats-Diag #   273 U10M
(PID.TID 0000.0001) SETDIAG: Allocate  1 Levels for Stats-Diag #   274 V10M
(PID.TID 0000.0001) SETDIAG: Allocate  1 Levels for Stats-Diag #   245 PS
(PID.TID 0000.0001) SETDIAG: Allocate  1 Levels for Stats-Diag #   238 OSRCLR
(PID.TID 0000.0001) SETDIAG: Allocate  1 Levels for Stats-Diag #   204 OLRCLR
(PID.TID 0000.0001) SETDIAG: Allocate  1 Levels for Stats-Diag #   248 SWGCLR
(PID.TID 0000.0001) SETDIAG: Allocate  1 Levels for Stats-Diag #   205 LWGCLR
(PID.TID 0000.0001)   space allocated for all stats-diags:      26 levels
(PID.TID 0000.0001) DIAGSTATS_SET_POINTERS: done
(PID.TID 0000.0001) ------------------------------------------------------------
 Setting Alarm for: 20040321  000000,  with frequency:      60000, and Tag: diagtag01                                                                       
 Setting Alarm for: 20040321  000000,  with frequency:      60000, and Tag: diagtag02                                                                       
 Setting Alarm for: 20040321  000000,  with frequency:      60000, and Tag: diagtag03                                                                       
 Setting Alarm for: 20040321  000000,  with frequency:      60000, and Tag: diagtag04                                                                       
 Setting Alarm for: 20040321  000000,  with frequency:    1000000, and Tag: diagStg01                                                                       
(PID.TID 0000.0001) %MON fCori_max                    =   1.4535016908525E-04
(PID.TID 0000.0001) %MON fCori_min                    =  -1.4535016908525E-04
(PID.TID 0000.0001) %MON fCori_mean                   =   0.0000000000000E+00
(PID.TID 0000.0001) %MON fCori_sd                     =   8.3972192788621E-05
(PID.TID 0000.0001) %MON fCoriG_max                   =   1.4544410433286E-04
(PID.TID 0000.0001) %MON fCoriG_min                   =  -1.4544410433286E-04
(PID.TID 0000.0001) %MON fCoriG_mean                  =   0.0000000000000E+00
(PID.TID 0000.0001) %MON fCoriG_sd                    =   8.3972192788621E-05
(PID.TID 0000.0001) %MON fCoriCos_max                 =   1.4540341538469E-04
(PID.TID 0000.0001) %MON fCoriCos_min                 =   5.2264550201501E-06
(PID.TID 0000.0001) %MON fCoriCos_mean                =   1.1482595466044E-04
(PID.TID 0000.0001) %MON fCoriCos_sd                  =   3.0292878037194E-05
(PID.TID 0000.0001) INI_CG2D: CG2D normalisation factor =  9.8060549904498906E-06
(PID.TID 0000.0001) INI_CG2D: cg2dTolerance = 4.166463737598143E-10 (Area=5.0986421043E+14)
(PID.TID 0000.0001) 
(PID.TID 0000.0001) // =======================================================
(PID.TID 0000.0001) // Model configuration
(PID.TID 0000.0001) // =======================================================
(PID.TID 0000.0001) //
(PID.TID 0000.0001) // "Physical" paramters ( PARM01 in namelist )
(PID.TID 0000.0001) //
(PID.TID 0000.0001) buoyancyRelation = /* Type of relation to get Buoyancy */
(PID.TID 0000.0001)               'ATMOSPHERIC'
(PID.TID 0000.0001)     ;
(PID.TID 0000.0001) fluidIsAir   =  /* fluid major constituent is Air */
(PID.TID 0000.0001)                   T
(PID.TID 0000.0001)     ;
(PID.TID 0000.0001) fluidIsWater =  /* fluid major constituent is Water */
(PID.TID 0000.0001)                   F
(PID.TID 0000.0001)     ;
(PID.TID 0000.0001) usingPCoords =  /* use p (or p*) vertical coordinate */
(PID.TID 0000.0001)                   T
(PID.TID 0000.0001)     ;
(PID.TID 0000.0001) usingZCoords =  /* use z (or z*) vertical coordinate */
(PID.TID 0000.0001)                   F
(PID.TID 0000.0001)     ;
(PID.TID 0000.0001) tRef =   /* Reference temperature profile ( oC or K ) */
(PID.TID 0000.0001)                 2.860000000000000E+02,      /* K =  1 */
(PID.TID 0000.0001)                 2.880000000000000E+02,      /* K =  2 */
(PID.TID 0000.0001)                 2.900000000000000E+02,      /* K =  3 */
(PID.TID 0000.0001)                 2.920000000000000E+02,      /* K =  4 */
(PID.TID 0000.0001)                 2.950000000000000E+02,      /* K =  5 */
(PID.TID 0000.0001)                 2.980000000000000E+02,      /* K =  6 */
(PID.TID 0000.0001)                 3.010000000000000E+02,      /* K =  7 */
(PID.TID 0000.0001)                 3.040000000000000E+02,      /* K =  8 */
(PID.TID 0000.0001)                 3.070000000000000E+02,      /* K =  9 */
(PID.TID 0000.0001)                 3.100000000000000E+02,      /* K = 10 */
(PID.TID 0000.0001)                 3.130000000000000E+02,      /* K = 11 */
(PID.TID 0000.0001)                 3.160000000000000E+02,      /* K = 12 */
(PID.TID 0000.0001)                 3.195000000000000E+02,      /* K = 13 */
(PID.TID 0000.0001)                 3.230000000000000E+02,      /* K = 14 */
(PID.TID 0000.0001)                 3.275000000000000E+02,      /* K = 15 */
(PID.TID 0000.0001)                 3.320000000000000E+02,      /* K = 16 */
(PID.TID 0000.0001)                 3.430000000000000E+02,      /* K = 17 */
(PID.TID 0000.0001)                 3.560000000000000E+02,      /* K = 18 */
(PID.TID 0000.0001)                 3.960000000000000E+02,      /* K = 19 */
(PID.TID 0000.0001)                 4.400000000000000E+02       /* K = 20 */
(PID.TID 0000.0001)     ;
(PID.TID 0000.0001) sRef =   /* Reference salinity profile ( psu ) */
(PID.TID 0000.0001)    20 @  0.000000000000000E+00              /* K =  1: 20 */
(PID.TID 0000.0001)     ;
(PID.TID 0000.0001) viscAh  =   /* Lateral eddy viscosity ( m^2/s ) */
(PID.TID 0000.0001)                 0.000000000000000E+00
(PID.TID 0000.0001)     ;
(PID.TID 0000.0001) viscAhMax = /* Maximum lateral eddy viscosity ( m^2/s ) */
(PID.TID 0000.0001)                 1.000000000000000E+21
(PID.TID 0000.0001)     ;
(PID.TID 0000.0001) viscAhGrid = /* Grid dependent lateral eddy viscosity ( non-dim. ) */
(PID.TID 0000.0001)                 0.000000000000000E+00
(PID.TID 0000.0001)     ;
(PID.TID 0000.0001) useFullLeith = /* Use Full Form of Leith Viscosity on/off flag*/
(PID.TID 0000.0001)                   F
(PID.TID 0000.0001)     ;
(PID.TID 0000.0001) useStrainTensionVisc= /* Use StrainTension Form of Viscous Operator flag*/
(PID.TID 0000.0001)                   F
(PID.TID 0000.0001)     ;
(PID.TID 0000.0001) useAreaViscLength = /* Use area for visc length instead of geom. mean*/
(PID.TID 0000.0001)                   F
(PID.TID 0000.0001)     ;
(PID.TID 0000.0001) viscC2leith = /* Leith harmonic visc. factor (on grad(vort),non-dim.) */
(PID.TID 0000.0001)                 0.000000000000000E+00
(PID.TID 0000.0001)     ;
(PID.TID 0000.0001) viscC2leithD = /* Leith harmonic viscosity factor (on grad(div),non-dim.)*/
(PID.TID 0000.0001)                 0.000000000000000E+00
(PID.TID 0000.0001)     ;
(PID.TID 0000.0001) viscC2smag = /* Smagorinsky harmonic viscosity factor (non-dim.) */
(PID.TID 0000.0001)                 0.000000000000000E+00
(PID.TID 0000.0001)     ;
(PID.TID 0000.0001) viscA4  =   /* Lateral biharmonic viscosity ( m^4/s ) */
(PID.TID 0000.0001)                 0.000000000000000E+00
(PID.TID 0000.0001)     ;
(PID.TID 0000.0001) viscA4Max = /* Maximum biharmonic viscosity ( m^2/s ) */
(PID.TID 0000.0001)                 1.000000000000000E+21
(PID.TID 0000.0001)     ;
(PID.TID 0000.0001) viscA4Grid = /* Grid dependent biharmonic viscosity ( non-dim. ) */
(PID.TID 0000.0001)                 0.000000000000000E+00
(PID.TID 0000.0001)     ;
(PID.TID 0000.0001) viscC4leith = /* Leith biharm viscosity factor (on grad(vort), non-dim.)*/
(PID.TID 0000.0001)                 0.000000000000000E+00
(PID.TID 0000.0001)     ;
(PID.TID 0000.0001) viscC4leithD = /* Leith biharm viscosity factor (on grad(div), non-dim.) */
(PID.TID 0000.0001)                 0.000000000000000E+00
(PID.TID 0000.0001)     ;
(PID.TID 0000.0001) viscC4Smag = /* Smagorinsky biharm viscosity factor (non-dim) */
(PID.TID 0000.0001)                 0.000000000000000E+00
(PID.TID 0000.0001)     ;
(PID.TID 0000.0001) no_slip_sides =  /* Viscous BCs: No-slip sides */
(PID.TID 0000.0001)                   F
(PID.TID 0000.0001)     ;
(PID.TID 0000.0001) sideDragFactor = /* side-drag scaling factor (non-dim) */
(PID.TID 0000.0001)                 2.000000000000000E+00
(PID.TID 0000.0001)     ;
(PID.TID 0000.0001) viscArNr = /* vertical profile of vertical viscosity (Pa^2/s )*/
(PID.TID 0000.0001)    20 @  0.000000000000000E+00              /* K =  1: 20 */
(PID.TID 0000.0001)     ;
(PID.TID 0000.0001) no_slip_bottom =  /* Viscous BCs: No-slip bottom */
(PID.TID 0000.0001)                   F
(PID.TID 0000.0001)     ;
(PID.TID 0000.0001) bottomDragLinear = /* linear bottom-drag coefficient ( m/s ) */
(PID.TID 0000.0001)                 0.000000000000000E+00
(PID.TID 0000.0001)     ;
(PID.TID 0000.0001) bottomDragQuadratic = /* quadratic bottom-drag coefficient (-) */
(PID.TID 0000.0001)                 0.000000000000000E+00
(PID.TID 0000.0001)     ;
(PID.TID 0000.0001) diffKhT =   /* Laplacian diffusion of heat laterally ( m^2/s ) */
(PID.TID 0000.0001)                 0.000000000000000E+00
(PID.TID 0000.0001)     ;
(PID.TID 0000.0001) diffK4T =   /* Biharmonic diffusion of heat laterally ( m^4/s ) */
(PID.TID 0000.0001)                 0.000000000000000E+00
(PID.TID 0000.0001)     ;
(PID.TID 0000.0001) diffKhS =   /* Laplacian diffusion of salt laterally ( m^2/s ) */
(PID.TID 0000.0001)                 0.000000000000000E+00
(PID.TID 0000.0001)     ;
(PID.TID 0000.0001) diffK4S =   /* Biharmonic diffusion of salt laterally ( m^4/s ) */
(PID.TID 0000.0001)                 0.000000000000000E+00
(PID.TID 0000.0001)     ;
(PID.TID 0000.0001) diffKrNrT = /* vertical profile of vertical diffusion of Temp (Pa^2/s )*/
(PID.TID 0000.0001)    20 @  0.000000000000000E+00              /* K =  1: 20 */
(PID.TID 0000.0001)     ;
(PID.TID 0000.0001) diffKrNrS = /* vertical profile of vertical diffusion of Salt (Pa^2/s )*/
(PID.TID 0000.0001)    20 @  0.000000000000000E+00              /* K =  1: 20 */
(PID.TID 0000.0001)     ;
(PID.TID 0000.0001) diffKrBL79surf = /* Surface diffusion for Bryan and Lewis 79 ( m^2/s ) */
(PID.TID 0000.0001)                 0.000000000000000E+00
(PID.TID 0000.0001)     ;
(PID.TID 0000.0001) diffKrBL79deep = /* Deep diffusion for Bryan and Lewis 1979 ( m^2/s ) */
(PID.TID 0000.0001)                 0.000000000000000E+00
(PID.TID 0000.0001)     ;
(PID.TID 0000.0001) diffKrBL79scl = /* Depth scale for Bryan and Lewis 1979 ( m ) */
(PID.TID 0000.0001)                 2.000000000000000E+02
(PID.TID 0000.0001)     ;
(PID.TID 0000.0001) diffKrBL79Ho = /* Turning depth for Bryan and Lewis 1979 ( m ) */
(PID.TID 0000.0001)                -2.000000000000000E+03
(PID.TID 0000.0001)     ;
(PID.TID 0000.0001) ivdc_kappa = /* Implicit Vertical Diffusivity for Convection (Pa^2/s) */
(PID.TID 0000.0001)                 0.000000000000000E+00
(PID.TID 0000.0001)     ;
(PID.TID 0000.0001) hMixCriteria=  /* Criteria for mixed-layer diagnostic */
(PID.TID 0000.0001)                -8.000000000000000E-01
(PID.TID 0000.0001)     ;
(PID.TID 0000.0001) dRhoSmall =  /* Parameter for mixed-layer diagnostic */
(PID.TID 0000.0001)                 1.000000000000000E-06
(PID.TID 0000.0001)     ;
(PID.TID 0000.0001) hMixSmooth=  /* Smoothing parameter for mixed-layer diagnostic */
(PID.TID 0000.0001)                 0.000000000000000E+00
(PID.TID 0000.0001)     ;
(PID.TID 0000.0001) eosType =  /* Type of Equation of State */
(PID.TID 0000.0001)               'IDEALG'
(PID.TID 0000.0001)     ;
(PID.TID 0000.0001) tAlpha =   /* Linear EOS thermal expansion coefficient ( 1/oC ) */
(PID.TID 0000.0001)                 1.234567000000000E+05
(PID.TID 0000.0001)     ;
(PID.TID 0000.0001) sBeta =   /* Linear EOS haline contraction coefficient ( 1/psu ) */
(PID.TID 0000.0001)                 1.234567000000000E+05
(PID.TID 0000.0001)     ;
(PID.TID 0000.0001) atm_Rd =  /* gas constant for dry air ( J/kg/K ) */
(PID.TID 0000.0001)                 2.868571428571428E+02
(PID.TID 0000.0001)     ;
(PID.TID 0000.0001) atm_Cp =  /* specific heat (Cp) of dry air ( J/kg/K ) */
(PID.TID 0000.0001)                 1.004000000000000E+03
(PID.TID 0000.0001)     ;
(PID.TID 0000.0001) atm_kappa =  /* kappa (=Rd/Cp ) of dry air */
(PID.TID 0000.0001)                 2.857142857142857E-01
(PID.TID 0000.0001)     ;
(PID.TID 0000.0001) atm_Rq = /* water vap. specific vol. anomaly relative to dry air */
(PID.TID 0000.0001)                 6.078000000000000E-01
(PID.TID 0000.0001)     ;
(PID.TID 0000.0001) atm_Po =  /* standard reference pressure ( Pa ) */
(PID.TID 0000.0001)                 1.000000000000000E+05
(PID.TID 0000.0001)     ;
(PID.TID 0000.0001) integr_GeoPot =  /* select how the geopotential is integrated */
(PID.TID 0000.0001)                       2
(PID.TID 0000.0001)     ;
(PID.TID 0000.0001) selectFindRoSurf=  /* select how Surf.Ref. pressure is defined */
(PID.TID 0000.0001)                       0
(PID.TID 0000.0001)     ;
(PID.TID 0000.0001) rhonil =   /* Reference density ( kg/m^3 ) */
(PID.TID 0000.0001)                 1.000000000000000E+00
(PID.TID 0000.0001)     ;
(PID.TID 0000.0001) rhoConst =   /* Reference density ( kg/m^3 ) */
(PID.TID 0000.0001)                 1.000000000000000E+00
(PID.TID 0000.0001)     ;
(PID.TID 0000.0001) rhoFacC = /* normalized Reference density @ cell-Center (-) */
(PID.TID 0000.0001)    20 @  1.000000000000000E+00              /* K =  1: 20 */
(PID.TID 0000.0001)     ;
(PID.TID 0000.0001) rhoFacF = /* normalized Reference density @ W-Interface (-) */
(PID.TID 0000.0001)    21 @  1.000000000000000E+00              /* K =  1: 21 */
(PID.TID 0000.0001)     ;
(PID.TID 0000.0001) rhoConstFresh =   /* Reference density ( kg/m^3 ) */
(PID.TID 0000.0001)                 1.000000000000000E+00
(PID.TID 0000.0001)     ;
(PID.TID 0000.0001) gravity =   /* Gravitational acceleration ( m/s^2 ) */
(PID.TID 0000.0001)                 9.810000000000001E+00
(PID.TID 0000.0001)     ;
(PID.TID 0000.0001) gBaro =   /* Barotropic gravity ( m/s^2 ) */
(PID.TID 0000.0001)                 9.810000000000001E+00
(PID.TID 0000.0001)     ;
(PID.TID 0000.0001) rotationPeriod =   /* Rotation Period ( s ) */
(PID.TID 0000.0001)                 8.640000000000000E+04
(PID.TID 0000.0001)     ;
(PID.TID 0000.0001) omega =   /* Angular velocity ( rad/s ) */
(PID.TID 0000.0001)                 7.272205216643039E-05
(PID.TID 0000.0001)     ;
(PID.TID 0000.0001) f0 =   /* Reference coriolis parameter ( 1/s ) */
(PID.TID 0000.0001)                 1.000000000000000E-04
(PID.TID 0000.0001)     ;
(PID.TID 0000.0001) beta =   /* Beta ( 1/(m.s) ) */
(PID.TID 0000.0001)                 9.999999999999998E-12
(PID.TID 0000.0001)     ;
(PID.TID 0000.0001) rigidLid =   /* Rigid lid on/off flag */
(PID.TID 0000.0001)                   F
(PID.TID 0000.0001)     ;
(PID.TID 0000.0001) implicitFreeSurface =   /* Implicit free surface on/off flag */
(PID.TID 0000.0001)                   T
(PID.TID 0000.0001)     ;
(PID.TID 0000.0001) freeSurfFac =   /* Implicit free surface factor */
(PID.TID 0000.0001)                 1.000000000000000E+00
(PID.TID 0000.0001)     ;
(PID.TID 0000.0001) implicSurfPress =  /* Surface Pressure implicit factor (0-1)*/
(PID.TID 0000.0001)                 1.000000000000000E+00
(PID.TID 0000.0001)     ;
(PID.TID 0000.0001) implicDiv2Dflow =  /* Barot. Flow Div. implicit factor (0-1)*/
(PID.TID 0000.0001)                 1.000000000000000E+00
(PID.TID 0000.0001)     ;
(PID.TID 0000.0001) exactConserv =  /* Exact Volume Conservation on/off flag*/
(PID.TID 0000.0001)                   T
(PID.TID 0000.0001)     ;
(PID.TID 0000.0001) linFSConserveTr = /* Tracer correction for Lin Free Surface on/off flag*/
(PID.TID 0000.0001)                   F
(PID.TID 0000.0001)     ;
(PID.TID 0000.0001) uniformLin_PhiSurf = /* use uniform Bo_surf on/off flag*/
(PID.TID 0000.0001)                   F
(PID.TID 0000.0001)     ;
(PID.TID 0000.0001) hFacMin =   /* minimum partial cell factor (hFac) */
(PID.TID 0000.0001)                 2.000000000000000E-01
(PID.TID 0000.0001)     ;
(PID.TID 0000.0001) hFacMinDr = /* minimum partial cell thickness (Pa) */
(PID.TID 0000.0001)                 2.000000000000000E-01
(PID.TID 0000.0001)     ;
(PID.TID 0000.0001) nonlinFreeSurf =  /* Non-linear Free Surf. options (-1,0,1,2,3)*/
(PID.TID 0000.0001)                       4
(PID.TID 0000.0001)     ;
(PID.TID 0000.0001)      -1,0= Off ; 1,2,3= On, 2=+rescale gU,gV, 3=+update cg2d solv.
(PID.TID 0000.0001) hFacInf =   /* lower threshold for hFac (nonlinFreeSurf only)*/
(PID.TID 0000.0001)                 2.000000000000000E-01
(PID.TID 0000.0001)     ;
(PID.TID 0000.0001) hFacSup =   /* upper threshold for hFac (nonlinFreeSurf only)*/
(PID.TID 0000.0001)                 2.000000000000000E+00
(PID.TID 0000.0001)     ;
(PID.TID 0000.0001) select_rStar = /* r* Vertical coord. options (=0 r coord.; >0 uses r*)*/
(PID.TID 0000.0001)                       2
(PID.TID 0000.0001)     ;
(PID.TID 0000.0001) selectAddFluid = /* option for mass source/sink of fluid (=0: off) */
(PID.TID 0000.0001)                       0
(PID.TID 0000.0001)     ;
(PID.TID 0000.0001) useRealFreshWaterFlux = /* Real Fresh Water Flux on/off flag*/
(PID.TID 0000.0001)                   F
(PID.TID 0000.0001)     ;
(PID.TID 0000.0001) temp_EvPrRn = /* Temp. of Evap/Prec/R (UNSET=use local T)(oC)*/
(PID.TID 0000.0001)                 1.234567000000000E+05
(PID.TID 0000.0001)     ;
(PID.TID 0000.0001) salt_EvPrRn = /* Salin. of Evap/Prec/R (UNSET=use local S)(psu)*/
(PID.TID 0000.0001)                 0.000000000000000E+00
(PID.TID 0000.0001)     ;
(PID.TID 0000.0001) temp_addMass = /* Temp. of addMass array (UNSET=use local T)(oC)*/
(PID.TID 0000.0001)                 1.234567000000000E+05
(PID.TID 0000.0001)     ;
(PID.TID 0000.0001) salt_addMass = /* Salin. of addMass array (UNSET=use local S)(psu)*/
(PID.TID 0000.0001)                 0.000000000000000E+00
(PID.TID 0000.0001)     ;
(PID.TID 0000.0001) convertFW2Salt = /* convert F.W. Flux to Salt Flux (-1=use local S)(psu)*/
(PID.TID 0000.0001)                 3.500000000000000E+01
(PID.TID 0000.0001)     ;
(PID.TID 0000.0001) use3Dsolver = /* use 3-D pressure solver on/off flag */
(PID.TID 0000.0001)                   F
(PID.TID 0000.0001)     ;
(PID.TID 0000.0001) nonHydrostatic =  /* Non-Hydrostatic on/off flag */
(PID.TID 0000.0001)                   F
(PID.TID 0000.0001)     ;
(PID.TID 0000.0001) nh_Am2 = /* Non-Hydrostatic terms scaling factor */
(PID.TID 0000.0001)                 1.000000000000000E+00
(PID.TID 0000.0001)     ;
(PID.TID 0000.0001) implicitNHPress = /* Non-Hyd Pressure implicit factor (0-1)*/
(PID.TID 0000.0001)                 1.000000000000000E+00
(PID.TID 0000.0001)     ;
(PID.TID 0000.0001) selectNHfreeSurf = /* Non-Hyd (free-)Surface option */
(PID.TID 0000.0001)                       0
(PID.TID 0000.0001)     ;
(PID.TID 0000.0001) quasiHydrostatic = /* Quasi-Hydrostatic on/off flag */
(PID.TID 0000.0001)                   F
(PID.TID 0000.0001)     ;
(PID.TID 0000.0001) momStepping =  /* Momentum equation on/off flag */
(PID.TID 0000.0001)                   T
(PID.TID 0000.0001)     ;
(PID.TID 0000.0001) vectorInvariantMomentum= /* Vector-Invariant Momentum on/off */
(PID.TID 0000.0001)                   T
(PID.TID 0000.0001)     ;
(PID.TID 0000.0001) momAdvection =  /* Momentum advection on/off flag */
(PID.TID 0000.0001)                   T
(PID.TID 0000.0001)     ;
(PID.TID 0000.0001) momViscosity =  /* Momentum viscosity on/off flag */
(PID.TID 0000.0001)                   T
(PID.TID 0000.0001)     ;
(PID.TID 0000.0001) momImplVertAdv= /* Momentum implicit vert. advection on/off*/
(PID.TID 0000.0001)                   F
(PID.TID 0000.0001)     ;
(PID.TID 0000.0001) implicitViscosity = /* Implicit viscosity on/off flag */
(PID.TID 0000.0001)                   F
(PID.TID 0000.0001)     ;
(PID.TID 0000.0001) metricTerms =  /* metric-Terms on/off flag */
(PID.TID 0000.0001)                   F
(PID.TID 0000.0001)     ;
(PID.TID 0000.0001) useNHMTerms = /* Non-Hydrostatic Metric-Terms on/off */
(PID.TID 0000.0001)                   F
(PID.TID 0000.0001)     ;
(PID.TID 0000.0001) useConstantF =  /* use Constant f0 Coriolis flag */
(PID.TID 0000.0001)                   F
(PID.TID 0000.0001)     ;
(PID.TID 0000.0001) useBetaPlaneF = /* use Beta-Plane Coriolis flag */
(PID.TID 0000.0001)                   F
(PID.TID 0000.0001)     ;
(PID.TID 0000.0001) useSphereF  =   /* use Spherical Coriolis flag */
(PID.TID 0000.0001)                   T
(PID.TID 0000.0001)     ;
(PID.TID 0000.0001) use3dCoriolis = /* 3-D Coriolis on/off flag */
(PID.TID 0000.0001)                   F
(PID.TID 0000.0001)     ;
(PID.TID 0000.0001) useCoriolis =  /* Coriolis on/off flag */
(PID.TID 0000.0001)                   T
(PID.TID 0000.0001)     ;
(PID.TID 0000.0001) useCDscheme =  /* CD scheme on/off flag */
(PID.TID 0000.0001)                   F
(PID.TID 0000.0001)     ;
(PID.TID 0000.0001) useJamartWetPoints= /* Coriolis WetPoints method flag */
(PID.TID 0000.0001)                   F
(PID.TID 0000.0001)     ;
(PID.TID 0000.0001) useJamartMomAdv= /* V.I. Non-linear terms Jamart flag */
(PID.TID 0000.0001)                   F
(PID.TID 0000.0001)     ;
(PID.TID 0000.0001) useAbsVorticity= /* Work with f+zeta in Coriolis */
(PID.TID 0000.0001)                   T
(PID.TID 0000.0001)     ;
(PID.TID 0000.0001) selectVortScheme= /* Scheme selector for Vorticity-Term */
(PID.TID 0000.0001)                       2
(PID.TID 0000.0001)    = 0 : enstrophy (Shallow-Water Eq.) conserving scheme by Sadourny, JAS 75
(PID.TID 0000.0001)    = 1 : same as 0 with modified hFac
(PID.TID 0000.0001)    = 2 : energy conserving scheme (used by Sadourny in JAS 75 paper)
(PID.TID 0000.0001)    = 3 : energy (general) and enstrophy (2D, nonDiv.) conserving scheme
(PID.TID 0000.0001)          from Sadourny (Burridge & Haseler, ECMWF Rep.4, 1977)
(PID.TID 0000.0001)     ;
(PID.TID 0000.0001) upwindVorticity= /* Upwind bias vorticity flag */
(PID.TID 0000.0001)                   F
(PID.TID 0000.0001)     ;
(PID.TID 0000.0001) highOrderVorticity= /* High order interp. of vort. flag */
(PID.TID 0000.0001)                   F
(PID.TID 0000.0001)     ;
(PID.TID 0000.0001) upwindShear= /* Upwind vertical Shear advection flag */
(PID.TID 0000.0001)                   F
(PID.TID 0000.0001)     ;
(PID.TID 0000.0001) selectKEscheme= /* Kinetic Energy scheme selector */
(PID.TID 0000.0001)                       3
(PID.TID 0000.0001)     ;
(PID.TID 0000.0001) momForcing =  /* Momentum forcing on/off flag */
(PID.TID 0000.0001)                   T
(PID.TID 0000.0001)     ;
(PID.TID 0000.0001) momPressureForcing =  /* Momentum pressure term on/off flag */
(PID.TID 0000.0001)                   T
(PID.TID 0000.0001)     ;
(PID.TID 0000.0001) implicitIntGravWave= /* Implicit Internal Gravity Wave flag */
(PID.TID 0000.0001)                   F
(PID.TID 0000.0001)     ;
(PID.TID 0000.0001) staggerTimeStep =   /* Stagger time stepping on/off flag */
(PID.TID 0000.0001)                   T
(PID.TID 0000.0001)     ;
(PID.TID 0000.0001) multiDimAdvection =   /* enable/disable Multi-Dim Advection */
(PID.TID 0000.0001)                   T
(PID.TID 0000.0001)     ;
(PID.TID 0000.0001) useMultiDimAdvec =   /* Multi-Dim Advection is/is-not used */
(PID.TID 0000.0001)                   F
(PID.TID 0000.0001)     ;
(PID.TID 0000.0001) implicitDiffusion = /* Implicit Diffusion on/off flag */
(PID.TID 0000.0001)                   F
(PID.TID 0000.0001)     ;
(PID.TID 0000.0001) tempStepping =  /* Temperature equation on/off flag */
(PID.TID 0000.0001)                   T
(PID.TID 0000.0001)     ;
(PID.TID 0000.0001) tempAdvection=  /* Temperature advection on/off flag */
(PID.TID 0000.0001)                   T
(PID.TID 0000.0001)     ;
(PID.TID 0000.0001) tempImplVertAdv = /* Temp. implicit vert. advection on/off */
(PID.TID 0000.0001)                   F
(PID.TID 0000.0001)     ;
(PID.TID 0000.0001) tempForcing  =  /* Temperature forcing on/off flag */
(PID.TID 0000.0001)                   T
(PID.TID 0000.0001)     ;
(PID.TID 0000.0001) tempIsActiveTr = /* Temp. is a dynamically Active Tracer */
(PID.TID 0000.0001)                   T
(PID.TID 0000.0001)     ;
(PID.TID 0000.0001) saltStepping =  /* Salinity equation on/off flag */
(PID.TID 0000.0001)                   T
(PID.TID 0000.0001)     ;
(PID.TID 0000.0001) saltAdvection=  /* Salinity advection on/off flag */
(PID.TID 0000.0001)                   T
(PID.TID 0000.0001)     ;
(PID.TID 0000.0001) saltImplVertAdv = /* Sali. implicit vert. advection on/off */
(PID.TID 0000.0001)                   F
(PID.TID 0000.0001)     ;
(PID.TID 0000.0001) saltForcing  =  /* Salinity forcing on/off flag */
(PID.TID 0000.0001)                   T
(PID.TID 0000.0001)     ;
(PID.TID 0000.0001) saltIsActiveTr = /* Salt  is a dynamically Active Tracer */
(PID.TID 0000.0001)                   T
(PID.TID 0000.0001)     ;
(PID.TID 0000.0001)  readBinaryPrec = /* Precision used for reading binary files */
(PID.TID 0000.0001)                      64
(PID.TID 0000.0001)     ;
(PID.TID 0000.0001) writeBinaryPrec = /* Precision used for writing binary files */
(PID.TID 0000.0001)                      64
(PID.TID 0000.0001)     ;
(PID.TID 0000.0001)  globalFiles = /* write "global" (=not per tile) files */
(PID.TID 0000.0001)                   F
(PID.TID 0000.0001)     ;
(PID.TID 0000.0001)  useSingleCpuIO = /* only master MPI process does I/O */
(PID.TID 0000.0001)                   F
(PID.TID 0000.0001)     ;
(PID.TID 0000.0001)  debugMode  =  /* Debug Mode on/off flag */
(PID.TID 0000.0001)                   F
(PID.TID 0000.0001)     ;
(PID.TID 0000.0001)    debLevA  =  /* 1rst level of debugging */
(PID.TID 0000.0001)                       1
(PID.TID 0000.0001)     ;
(PID.TID 0000.0001)    debLevB  =  /* 2nd  level of debugging */
(PID.TID 0000.0001)                       2
(PID.TID 0000.0001)     ;
(PID.TID 0000.0001)  debugLevel =  /* select debugging level */
(PID.TID 0000.0001)                       1
(PID.TID 0000.0001)     ;
(PID.TID 0000.0001) //
(PID.TID 0000.0001) // Elliptic solver(s) paramters ( PARM02 in namelist )
(PID.TID 0000.0001) //
(PID.TID 0000.0001) cg2dMaxIters =   /* Upper limit on 2d con. grad iterations  */
(PID.TID 0000.0001)                     200
(PID.TID 0000.0001)     ;
(PID.TID 0000.0001) cg2dChkResFreq =   /* 2d con. grad convergence test frequency */
(PID.TID 0000.0001)                       1
(PID.TID 0000.0001)     ;
(PID.TID 0000.0001) cg2dTargetResidual =   /* 2d con. grad target residual  */
(PID.TID 0000.0001)                 1.000000000000000E-07
(PID.TID 0000.0001)     ;
(PID.TID 0000.0001) cg2dTargetResWunit =   /* CG2d target residual [W units] */
(PID.TID 0000.0001)                 1.000000000000001E-17
(PID.TID 0000.0001)     ;
(PID.TID 0000.0001) cg2dPreCondFreq =   /* Freq. for updating cg2d preconditioner */
(PID.TID 0000.0001)                       1
(PID.TID 0000.0001)     ;
(PID.TID 0000.0001) useSRCGSolver =  /* use single reduction CG solver(s) */
(PID.TID 0000.0001)                   F
(PID.TID 0000.0001)     ;
(PID.TID 0000.0001) //
(PID.TID 0000.0001) // Time stepping paramters ( PARM03 in namelist )
(PID.TID 0000.0001) //
(PID.TID 0000.0001) deltaTmom =   /* Momentum equation timestep ( s ) */
(PID.TID 0000.0001)                 1.200000000000000E+02
(PID.TID 0000.0001)     ;
(PID.TID 0000.0001) deltaTfreesurf = /* FreeSurface equation timestep ( s ) */
(PID.TID 0000.0001)                 1.200000000000000E+02
(PID.TID 0000.0001)     ;
(PID.TID 0000.0001) dTtracerLev =  /* Tracer equation timestep ( s ) */
(PID.TID 0000.0001)    20 @  1.200000000000000E+02              /* K =  1: 20 */
(PID.TID 0000.0001)     ;
(PID.TID 0000.0001) deltaTClock  =   /* Model clock timestep ( s ) */
(PID.TID 0000.0001)                 1.200000000000000E+02
(PID.TID 0000.0001)     ;
(PID.TID 0000.0001) cAdjFreq =   /* Convective adjustment interval ( s ) */
(PID.TID 0000.0001)                 0.000000000000000E+00
(PID.TID 0000.0001)     ;
(PID.TID 0000.0001) momForcingOutAB = /* =1: take Momentum Forcing out of Adams-Bash. stepping */
(PID.TID 0000.0001)                       1
(PID.TID 0000.0001)     ;
(PID.TID 0000.0001) tracForcingOutAB = /* =1: take T,S,pTr Forcing out of Adams-Bash. stepping */
(PID.TID 0000.0001)                       1
(PID.TID 0000.0001)     ;
(PID.TID 0000.0001) momDissip_In_AB = /* put Dissipation Tendency in Adams-Bash. stepping */
(PID.TID 0000.0001)                   T
(PID.TID 0000.0001)     ;
(PID.TID 0000.0001) doAB_onGtGs = /* apply AB on Tendencies (rather than on T,S)*/
(PID.TID 0000.0001)                   T
(PID.TID 0000.0001)     ;
(PID.TID 0000.0001) abEps =   /* Adams-Bashforth-2 stabilizing weight */
(PID.TID 0000.0001)                 1.000000000000000E-01
(PID.TID 0000.0001)     ;
(PID.TID 0000.0001) pickupStrictlyMatch= /* stop if pickup do not strictly match */
(PID.TID 0000.0001)                   T
(PID.TID 0000.0001)     ;
(PID.TID 0000.0001) nIter0 =   /* Run starting timestep number  */
(PID.TID 0000.0001)                       0
(PID.TID 0000.0001)     ;
(PID.TID 0000.0001) nTimeSteps =   /* Number of timesteps */
(PID.TID 0000.0001)                      15
(PID.TID 0000.0001)     ;
(PID.TID 0000.0001) baseTime =   /* Model base time ( s ). */
(PID.TID 0000.0001)                 0.000000000000000E+00
(PID.TID 0000.0001)     ;
(PID.TID 0000.0001) startTime =   /* Run start time ( s ). */
(PID.TID 0000.0001)                 0.000000000000000E+00
(PID.TID 0000.0001)     ;
(PID.TID 0000.0001) endTime =   /* Integration ending time ( s ). */
(PID.TID 0000.0001)                 1.800000000000000E+03
(PID.TID 0000.0001)     ;
(PID.TID 0000.0001) pChkPtFreq =   /* Permanent restart/checkpoint file interval ( s ). */
(PID.TID 0000.0001)                 0.000000000000000E+00
(PID.TID 0000.0001)     ;
(PID.TID 0000.0001) chkPtFreq =   /* Rolling restart/checkpoint file interval ( s ). */
(PID.TID 0000.0001)                 0.000000000000000E+00
(PID.TID 0000.0001)     ;
(PID.TID 0000.0001) pickup_write_mdsio =   /* Model IO flag. */
(PID.TID 0000.0001)                   T
(PID.TID 0000.0001)     ;
(PID.TID 0000.0001) pickup_read_mdsio =   /* Model IO flag. */
(PID.TID 0000.0001)                   T
(PID.TID 0000.0001)     ;
(PID.TID 0000.0001) pickup_write_mnc =   /* Model IO flag. */
(PID.TID 0000.0001)                   F
(PID.TID 0000.0001)     ;
(PID.TID 0000.0001) pickup_read_mnc =   /* Model IO flag. */
(PID.TID 0000.0001)                   F
(PID.TID 0000.0001)     ;
(PID.TID 0000.0001) pickup_write_immed =   /* Model IO flag. */
(PID.TID 0000.0001)                   F
(PID.TID 0000.0001)     ;
(PID.TID 0000.0001) writePickupAtEnd =   /* Model IO flag. */
(PID.TID 0000.0001)                   F
(PID.TID 0000.0001)     ;
(PID.TID 0000.0001) dumpFreq =   /* Model state write out interval ( s ). */
(PID.TID 0000.0001)                 0.000000000000000E+00
(PID.TID 0000.0001)     ;
(PID.TID 0000.0001) dumpInitAndLast= /* write out Initial & Last iter. model state */
(PID.TID 0000.0001)                   T
(PID.TID 0000.0001)     ;
(PID.TID 0000.0001) snapshot_mdsio =   /* Model IO flag. */
(PID.TID 0000.0001)                   F
(PID.TID 0000.0001)     ;
(PID.TID 0000.0001) snapshot_mnc =   /* Model IO flag. */
(PID.TID 0000.0001)                   T
(PID.TID 0000.0001)     ;
(PID.TID 0000.0001) monitorFreq =   /* Monitor output interval ( s ). */
(PID.TID 0000.0001)                 1.000000000000000E+00
(PID.TID 0000.0001)     ;
(PID.TID 0000.0001) monitorSelect = /* select group of variables to monitor */
(PID.TID 0000.0001)                       2
(PID.TID 0000.0001)     ;
(PID.TID 0000.0001) monitor_stdio =   /* Model IO flag. */
(PID.TID 0000.0001)                   T
(PID.TID 0000.0001)     ;
(PID.TID 0000.0001) monitor_mnc =   /* Model IO flag. */
(PID.TID 0000.0001)                   F
(PID.TID 0000.0001)     ;
(PID.TID 0000.0001) externForcingPeriod =   /* forcing period (s) */
(PID.TID 0000.0001)                 0.000000000000000E+00
(PID.TID 0000.0001)     ;
(PID.TID 0000.0001) externForcingCycle =   /* period of the cyle (s). */
(PID.TID 0000.0001)                 0.000000000000000E+00
(PID.TID 0000.0001)     ;
(PID.TID 0000.0001) tauThetaClimRelax =   /* relaxation time scale (s) */
(PID.TID 0000.0001)                 0.000000000000000E+00
(PID.TID 0000.0001)     ;
(PID.TID 0000.0001) tauSaltClimRelax =   /* relaxation time scale (s) */
(PID.TID 0000.0001)                 0.000000000000000E+00
(PID.TID 0000.0001)     ;
(PID.TID 0000.0001) latBandClimRelax =   /* max. Lat. where relaxation */
(PID.TID 0000.0001)                 1.800000000000000E+02
(PID.TID 0000.0001)     ;
(PID.TID 0000.0001) //
(PID.TID 0000.0001) // Gridding paramters ( PARM04 in namelist )
(PID.TID 0000.0001) //
(PID.TID 0000.0001) usingCartesianGrid = /* Cartesian coordinates flag ( True/False ) */
(PID.TID 0000.0001)                   F
(PID.TID 0000.0001)     ;
(PID.TID 0000.0001) usingCylindricalGrid = /* Cylindrical coordinates flag ( True/False ) */
(PID.TID 0000.0001)                   F
(PID.TID 0000.0001)     ;
(PID.TID 0000.0001) usingSphericalPolarGrid = /* Spherical coordinates flag ( True/False ) */
(PID.TID 0000.0001)                   F
(PID.TID 0000.0001)     ;
(PID.TID 0000.0001) usingCurvilinearGrid = /* Curvilinear coordinates flag ( True/False ) */
(PID.TID 0000.0001)                   T
(PID.TID 0000.0001)     ;
(PID.TID 0000.0001) selectSigmaCoord = /* Hybrid-Sigma Vert. Coordinate option */
(PID.TID 0000.0001)                       0
(PID.TID 0000.0001)     ;
(PID.TID 0000.0001) Ro_SeaLevel = /* r(1) ( units of r == Pa ) */
(PID.TID 0000.0001)                 1.010800000000000E+05
(PID.TID 0000.0001)     ;
(PID.TID 0000.0001) rSigmaBnd = /* r/sigma transition ( units of r == Pa ) */
(PID.TID 0000.0001)                 1.234567000000000E+05
(PID.TID 0000.0001)     ;
(PID.TID 0000.0001) rkSign =   /* index orientation relative to vertical coordinate */
(PID.TID 0000.0001)                -1.000000000000000E+00
(PID.TID 0000.0001)     ;
(PID.TID 0000.0001) gravitySign = /* gravity orientation relative to vertical coordinate */
(PID.TID 0000.0001)                 1.000000000000000E+00
(PID.TID 0000.0001)     ;
(PID.TID 0000.0001) mass2rUnit = /* convert mass per unit area [kg/m2] to r-units [Pa] */
(PID.TID 0000.0001)                 9.810000000000001E+00
(PID.TID 0000.0001)     ;
(PID.TID 0000.0001) rUnit2mass = /* convert r-units [Pa] to mass per unit area [kg/m2] */
(PID.TID 0000.0001)                 1.019367991845056E-01
(PID.TID 0000.0001)     ;
(PID.TID 0000.0001) drC =   /* C spacing ( units of r ) */
(PID.TID 0000.0001)                 2.527000000000000E+03,      /* K =  1 */
(PID.TID 0000.0001)    19 @  5.054000000000000E+03              /* K =  2: 20 */
(PID.TID 0000.0001)     ;
(PID.TID 0000.0001) drF =   /* W spacing ( units of r ) */
(PID.TID 0000.0001)    20 @  5.054000000000000E+03              /* K =  1: 20 */
(PID.TID 0000.0001)     ;
(PID.TID 0000.0001) xgOrigin = /* X-axis origin of West  edge (cartesian: m, lat-lon: deg.) */
(PID.TID 0000.0001)                 0.000000000000000E+00
(PID.TID 0000.0001)     ;
(PID.TID 0000.0001) ygOrigin = /* Y-axis origin of South edge (cartesian: m, lat-lon: deg.) */
(PID.TID 0000.0001)                 0.000000000000000E+00
(PID.TID 0000.0001)     ;
(PID.TID 0000.0001) rSphere =  /* Radius ( ignored - cartesian, m - spherical ) */
(PID.TID 0000.0001)                 6.371000000000000E+06
(PID.TID 0000.0001)     ;
(PID.TID 0000.0001) deepAtmosphere = /* Deep/Shallow Atmosphere flag (True/False) */
(PID.TID 0000.0001)                   F
(PID.TID 0000.0001)     ;
(PID.TID 0000.0001) xC =  /* xC(:,1,:,1) : P-point X coord ( deg. or m if cartesian) */
(PID.TID 0000.0001)                -4.439521994760536E+01,      /* I =  1 */
(PID.TID 0000.0001)                -4.295641272275883E+01,      /* I =  2 */
(PID.TID 0000.0001)                -4.122055553388957E+01,      /* I =  3 */
(PID.TID 0000.0001)      . . .
(PID.TID 0000.0001)                 8.070819219728060E+01,      /* I = 46 */
(PID.TID 0000.0001)                 8.439652466417766E+01,      /* I = 47 */
(PID.TID 0000.0001)                 8.812739148696656E+01,      /* I = 48 */
(PID.TID 0000.0001)                 9.187260851303344E+01,      /* I = 49 */
(PID.TID 0000.0001)                 9.560347533582234E+01,      /* I = 50 */
(PID.TID 0000.0001)                 9.929180780271940E+01,      /* I = 51 */
(PID.TID 0000.0001)      . . .
(PID.TID 0000.0001)                 1.321863035748696E+02,      /* I = 94 */
(PID.TID 0000.0001)                 1.337919453120370E+02,      /* I = 95 */
(PID.TID 0000.0001)                 1.350000000000000E+02,      /* I = 96 */
(PID.TID 0000.0001)                 1.356047800523947E+02,      /* I = 97 */
(PID.TID 0000.0001)                 1.358367907661329E+02,      /* I = 98 */
(PID.TID 0000.0001)                 1.359720382181193E+02,      /* I = 99 */
(PID.TID 0000.0001)      . . .
(PID.TID 0000.0001)                -1.336511021209287E+02,      /* I =142 */
(PID.TID 0000.0001)                -1.336469399409420E+02,      /* I =143 */
(PID.TID 0000.0001)                -1.336449032499283E+02,      /* I =144 */
(PID.TID 0000.0001)                -1.336449032499283E+02,      /* I =145 */
(PID.TID 0000.0001)                -1.336469399409420E+02,      /* I =146 */
(PID.TID 0000.0001)                -1.336511021209287E+02,      /* I =147 */
(PID.TID 0000.0001)      . . .
(PID.TID 0000.0001)                 1.378136964251304E+02,      /* I =190 */
(PID.TID 0000.0001)                 1.362080546879630E+02,      /* I =191 */
(PID.TID 0000.0001)                 1.350000000000000E+02       /* I =192 */
(PID.TID 0000.0001)     ;
(PID.TID 0000.0001) yC =  /* yC(1,:,1,:) : P-point Y coord ( deg. or m if cartesian) */
(PID.TID 0000.0001)                -3.497677942598243E+01,      /* J =  1 */
(PID.TID 0000.0001)                -3.374005967394886E+01,      /* J =  2 */
(PID.TID 0000.0001)                -3.220655175667454E+01,      /* J =  3 */
(PID.TID 0000.0001)                -3.045756348838641E+01,      /* J =  4 */
(PID.TID 0000.0001)                -2.853728129852918E+01,      /* J =  5 */
(PID.TID 0000.0001)                -2.647426640173173E+01,      /* J =  6 */
(PID.TID 0000.0001)                -2.428936657094636E+01,      /* J =  7 */
(PID.TID 0000.0001)                -2.199915808312262E+01,      /* J =  8 */
(PID.TID 0000.0001)                -1.961768597440146E+01,      /* J =  9 */
(PID.TID 0000.0001)                -1.715743888281371E+01,      /* J = 10 */
(PID.TID 0000.0001)                -1.462993396899330E+01,      /* J = 11 */
(PID.TID 0000.0001)                -1.204608340464756E+01,      /* J = 12 */
(PID.TID 0000.0001)                -9.416429130284818E+00,      /* J = 13 */
(PID.TID 0000.0001)                -6.751293662992216E+00,      /* J = 14 */
(PID.TID 0000.0001)                -4.060875511835959E+00,      /* J = 15 */
(PID.TID 0000.0001)                -1.355307764409121E+00,      /* J = 16 */
(PID.TID 0000.0001)                 1.355307764409121E+00,      /* J = 17 */
(PID.TID 0000.0001)                 4.060875511835959E+00,      /* J = 18 */
(PID.TID 0000.0001)                 6.751293662992216E+00,      /* J = 19 */
(PID.TID 0000.0001)                 9.416429130284818E+00,      /* J = 20 */
(PID.TID 0000.0001)                 1.204608340464756E+01,      /* J = 21 */
(PID.TID 0000.0001)                 1.462993396899330E+01,      /* J = 22 */
(PID.TID 0000.0001)                 1.715743888281371E+01,      /* J = 23 */
(PID.TID 0000.0001)                 1.961768597440146E+01,      /* J = 24 */
(PID.TID 0000.0001)                 2.199915808312262E+01,      /* J = 25 */
(PID.TID 0000.0001)                 2.428936657094636E+01,      /* J = 26 */
(PID.TID 0000.0001)                 2.647426640173173E+01,      /* J = 27 */
(PID.TID 0000.0001)                 2.853728129852918E+01,      /* J = 28 */
(PID.TID 0000.0001)                 3.045756348838641E+01,      /* J = 29 */
(PID.TID 0000.0001)                 3.220655175667454E+01,      /* J = 30 */
(PID.TID 0000.0001)                 3.374005967394886E+01,      /* J = 31 */
(PID.TID 0000.0001)                 3.497677942598243E+01       /* J = 32 */
(PID.TID 0000.0001)     ;
(PID.TID 0000.0001) rcoord = /* P-point R coordinate (  units of r ) */
(PID.TID 0000.0001)                 9.855300000000000E+04,      /* K =  1 */
(PID.TID 0000.0001)                 9.349900000000000E+04,      /* K =  2 */
(PID.TID 0000.0001)                 8.844500000000000E+04,      /* K =  3 */
(PID.TID 0000.0001)                 8.339100000000000E+04,      /* K =  4 */
(PID.TID 0000.0001)                 7.833700000000000E+04,      /* K =  5 */
(PID.TID 0000.0001)                 7.328300000000000E+04,      /* K =  6 */
(PID.TID 0000.0001)                 6.822900000000000E+04,      /* K =  7 */
(PID.TID 0000.0001)                 6.317500000000000E+04,      /* K =  8 */
(PID.TID 0000.0001)                 5.812100000000000E+04,      /* K =  9 */
(PID.TID 0000.0001)                 5.306700000000000E+04,      /* K = 10 */
(PID.TID 0000.0001)                 4.801300000000000E+04,      /* K = 11 */
(PID.TID 0000.0001)                 4.295900000000000E+04,      /* K = 12 */
(PID.TID 0000.0001)                 3.790500000000000E+04,      /* K = 13 */
(PID.TID 0000.0001)                 3.285100000000000E+04,      /* K = 14 */
(PID.TID 0000.0001)                 2.779700000000000E+04,      /* K = 15 */
(PID.TID 0000.0001)                 2.274300000000000E+04,      /* K = 16 */
(PID.TID 0000.0001)                 1.768900000000000E+04,      /* K = 17 */
(PID.TID 0000.0001)                 1.263500000000000E+04,      /* K = 18 */
(PID.TID 0000.0001)                 7.581000000000000E+03,      /* K = 19 */
(PID.TID 0000.0001)                 2.527000000000000E+03       /* K = 20 */
(PID.TID 0000.0001)     ;
(PID.TID 0000.0001) rF =   /* W-Interf. R coordinate (  units of r ) */
(PID.TID 0000.0001)                 1.010800000000000E+05,      /* K =  1 */
(PID.TID 0000.0001)                 9.602600000000000E+04,      /* K =  2 */
(PID.TID 0000.0001)                 9.097200000000000E+04,      /* K =  3 */
(PID.TID 0000.0001)                 8.591800000000000E+04,      /* K =  4 */
(PID.TID 0000.0001)                 8.086400000000000E+04,      /* K =  5 */
(PID.TID 0000.0001)                 7.581000000000000E+04,      /* K =  6 */
(PID.TID 0000.0001)                 7.075600000000000E+04,      /* K =  7 */
(PID.TID 0000.0001)                 6.570200000000000E+04,      /* K =  8 */
(PID.TID 0000.0001)                 6.064800000000000E+04,      /* K =  9 */
(PID.TID 0000.0001)                 5.559400000000000E+04,      /* K = 10 */
(PID.TID 0000.0001)                 5.054000000000000E+04,      /* K = 11 */
(PID.TID 0000.0001)                 4.548600000000000E+04,      /* K = 12 */
(PID.TID 0000.0001)                 4.043200000000000E+04,      /* K = 13 */
(PID.TID 0000.0001)                 3.537800000000000E+04,      /* K = 14 */
(PID.TID 0000.0001)                 3.032400000000000E+04,      /* K = 15 */
(PID.TID 0000.0001)                 2.527000000000000E+04,      /* K = 16 */
(PID.TID 0000.0001)                 2.021600000000000E+04,      /* K = 17 */
(PID.TID 0000.0001)                 1.516200000000000E+04,      /* K = 18 */
(PID.TID 0000.0001)                 1.010800000000000E+04,      /* K = 19 */
(PID.TID 0000.0001)                 5.054000000000000E+03,      /* K = 20 */
(PID.TID 0000.0001)                 0.000000000000000E+00       /* K = 21 */
(PID.TID 0000.0001)     ;
(PID.TID 0000.0001) deepFacC = /* deep-model grid factor @ cell-Center (-) */
(PID.TID 0000.0001)    20 @  1.000000000000000E+00              /* K =  1: 20 */
(PID.TID 0000.0001)     ;
(PID.TID 0000.0001) deepFacF = /* deep-model grid factor @ W-Interface (-) */
(PID.TID 0000.0001)    21 @  1.000000000000000E+00              /* K =  1: 21 */
(PID.TID 0000.0001)     ;
(PID.TID 0000.0001) rVel2wUnit = /* convert units: rVel -> wSpeed (=1 if z-coord)*/
(PID.TID 0000.0001)                 8.299088287772964E-02,      /* K =  1 */
(PID.TID 0000.0001)                 8.638890293216914E-02,      /* K =  2 */
(PID.TID 0000.0001)                 9.041617201713111E-02,      /* K =  3 */
(PID.TID 0000.0001)                 9.483581781060730E-02,      /* K =  4 */
(PID.TID 0000.0001)                 9.988353290717637E-02,      /* K =  5 */
(PID.TID 0000.0001)                 1.056649626927390E-01,      /* K =  6 */
(PID.TID 0000.0001)                 1.121257692218901E-01,      /* K =  7 */
(PID.TID 0000.0001)                 1.194051469114864E-01,      /* K =  8 */
(PID.TID 0000.0001)                 1.276847289147875E-01,      /* K =  9 */
(PID.TID 0000.0001)                 1.372065176022861E-01,      /* K = 10 */
(PID.TID 0000.0001)                 1.483009141465203E-01,      /* K = 11 */
(PID.TID 0000.0001)                 1.614322681434870E-01,      /* K = 12 */
(PID.TID 0000.0001)                 1.774159962051914E-01,      /* K = 13 */
(PID.TID 0000.0001)                 1.973209376690589E-01,      /* K = 14 */
(PID.TID 0000.0001)                 2.230316384843163E-01,      /* K = 15 */
(PID.TID 0000.0001)                 2.575680599426761E-01,      /* K = 16 */
(PID.TID 0000.0001)                 3.091736104663851E-01,      /* K = 17 */
(PID.TID 0000.0001)                 3.932038624176537E-01,      /* K = 18 */
(PID.TID 0000.0001)                 5.651163998376351E-01,      /* K = 19 */
(PID.TID 0000.0001)                 1.030736779539694E+00,      /* K = 20 */
(PID.TID 0000.0001)                 1.000000000000000E+00       /* K = 21 */
(PID.TID 0000.0001)     ;
(PID.TID 0000.0001) wUnit2rVel = /* convert units: wSpeed -> rVel (=1 if z-coord)*/
(PID.TID 0000.0001)                 1.204951634835960E+01,      /* K =  1 */
(PID.TID 0000.0001)                 1.157556081925453E+01,      /* K =  2 */
(PID.TID 0000.0001)                 1.105996834073589E+01,      /* K =  3 */
(PID.TID 0000.0001)                 1.054453921615416E+01,      /* K =  4 */
(PID.TID 0000.0001)                 1.001166028968277E+01,      /* K =  5 */
(PID.TID 0000.0001)                 9.463875011321207E+00,      /* K =  6 */
(PID.TID 0000.0001)                 8.918556429441841E+00,      /* K =  7 */
(PID.TID 0000.0001)                 8.374848370156839E+00,      /* K =  8 */
(PID.TID 0000.0001)                 7.831790132611446E+00,      /* K =  9 */
(PID.TID 0000.0001)                 7.288283512148101E+00,      /* K = 10 */
(PID.TID 0000.0001)                 6.743046769165609E+00,      /* K = 11 */
(PID.TID 0000.0001)                 6.194548410303959E+00,      /* K = 12 */
(PID.TID 0000.0001)                 5.636470337451675E+00,      /* K = 13 */
(PID.TID 0000.0001)                 5.067885911211165E+00,      /* K = 14 */
(PID.TID 0000.0001)                 4.483668804999254E+00,      /* K = 15 */
(PID.TID 0000.0001)                 3.882468968483740E+00,      /* K = 16 */
(PID.TID 0000.0001)                 3.234428703314977E+00,      /* K = 17 */
(PID.TID 0000.0001)                 2.543210012870675E+00,      /* K = 18 */
(PID.TID 0000.0001)                 1.769546946942811E+00,      /* K = 19 */
(PID.TID 0000.0001)                 9.701797974518570E-01,      /* K = 20 */
(PID.TID 0000.0001)                 1.000000000000000E+00       /* K = 21 */
(PID.TID 0000.0001)     ;
(PID.TID 0000.0001) dBdrRef = /* Vertical gradient of reference boyancy [(m/s/r)^2)] */
(PID.TID 0000.0001)                 0.000000000000000E+00,      /* K =  1 */
(PID.TID 0000.0001)                 1.168695101832678E-06,      /* K =  2 */
(PID.TID 0000.0001)                 1.214731933662585E-06,      /* K =  3 */
(PID.TID 0000.0001)                 1.265376800132251E-06,      /* K =  4 */
(PID.TID 0000.0001)                 1.982108400861510E-06,      /* K =  5 */
(PID.TID 0000.0001)                 2.075677388535635E-06,      /* K =  6 */
(PID.TID 0000.0001)                 2.180603685167407E-06,      /* K =  7 */
(PID.TID 0000.0001)                 2.299237756774469E-06,      /* K =  8 */
(PID.TID 0000.0001)                 2.434651197433198E-06,      /* K =  9 */
(PID.TID 0000.0001)                 2.590943086329595E-06,      /* K = 10 */
(PID.TID 0000.0001)                 2.773719906973164E-06,      /* K = 11 */
(PID.TID 0000.0001)                 2.990877444713175E-06,      /* K = 12 */
(PID.TID 0000.0001)                 3.796258619174569E-06,      /* K = 13 */
(PID.TID 0000.0001)                 4.177197220701854E-06,      /* K = 14 */
(PID.TID 0000.0001)                 5.998085821035755E-06,      /* K = 15 */
(PID.TID 0000.0001)                 6.836650610103146E-06,      /* K = 16 */
(PID.TID 0000.0001)                 1.962224720100582E-05,      /* K = 17 */
(PID.TID 0000.0001)                 2.855207349352877E-05,      /* K = 18 */
(PID.TID 0000.0001)                 1.182300266773325E-04,      /* K = 19 */
(PID.TID 0000.0001)                 2.229643522577340E-04       /* K = 20 */
(PID.TID 0000.0001)     ;
(PID.TID 0000.0001) rotateGrid = /* use rotated grid ( True/False ) */
(PID.TID 0000.0001)                   F
(PID.TID 0000.0001)     ;
(PID.TID 0000.0001) phiEuler = /* Euler angle, rotation about original z-coordinate [rad] */
(PID.TID 0000.0001)                 0.000000000000000E+00
(PID.TID 0000.0001)     ;
(PID.TID 0000.0001) thetaEuler = /* Euler angle, rotation about new x-coordinate [rad] */
(PID.TID 0000.0001)                 0.000000000000000E+00
(PID.TID 0000.0001)     ;
(PID.TID 0000.0001) psiEuler = /* Euler angle, rotation about new z-coordinate [rad] */
(PID.TID 0000.0001)                 0.000000000000000E+00
(PID.TID 0000.0001)     ;
(PID.TID 0000.0001) dxF =  /* dxF(:,1,:,1) ( units: m ) */
(PID.TID 0000.0001)                 1.202082051331828E+05,      /* I =  1 */
(PID.TID 0000.0001)                 1.563594089971120E+05,      /* I =  2 */
(PID.TID 0000.0001)                 1.835530058121492E+05,      /* I =  3 */
(PID.TID 0000.0001)      . . .
(PID.TID 0000.0001)                 2.978501920522794E+05,      /* I = 46 */
(PID.TID 0000.0001)                 3.000967749619962E+05,      /* I = 47 */
(PID.TID 0000.0001)                 3.012190981969055E+05,      /* I = 48 */
(PID.TID 0000.0001)                 3.012190981969055E+05,      /* I = 49 */
(PID.TID 0000.0001)                 3.000967749619962E+05,      /* I = 50 */
(PID.TID 0000.0001)                 2.978501920522794E+05,      /* I = 51 */
(PID.TID 0000.0001)      . . .
(PID.TID 0000.0001)                 1.835530058121492E+05,      /* I = 94 */
(PID.TID 0000.0001)                 1.563594089971120E+05,      /* I = 95 */
(PID.TID 0000.0001)                 1.202082051331828E+05,      /* I = 96 */
(PID.TID 0000.0001)                 1.202082051331828E+05,      /* I = 97 */
(PID.TID 0000.0001)                 1.563594089971120E+05,      /* I = 98 */
(PID.TID 0000.0001)                 1.835530058121492E+05,      /* I = 99 */
(PID.TID 0000.0001)      . . .
(PID.TID 0000.0001)                 2.978501920522794E+05,      /* I =142 */
(PID.TID 0000.0001)                 3.000967749619962E+05,      /* I =143 */
(PID.TID 0000.0001)                 3.012190981969055E+05,      /* I =144 */
(PID.TID 0000.0001)                 3.012190981969055E+05,      /* I =145 */
(PID.TID 0000.0001)                 3.000967749619962E+05,      /* I =146 */
(PID.TID 0000.0001)                 2.978501920522794E+05,      /* I =147 */
(PID.TID 0000.0001)      . . .
(PID.TID 0000.0001)                 1.835530058121492E+05,      /* I =190 */
(PID.TID 0000.0001)                 1.563594089971120E+05,      /* I =191 */
(PID.TID 0000.0001)                 1.202082051331828E+05       /* I =192 */
(PID.TID 0000.0001)     ;
(PID.TID 0000.0001) dxF =  /* dxF(1,:,1,:) ( units: m ) */
(PID.TID 0000.0001)                 1.202082051331828E+05,      /* J =  1 */
(PID.TID 0000.0001)                 1.572908084538706E+05,      /* J =  2 */
(PID.TID 0000.0001)                 1.840412227747703E+05,      /* J =  3 */
(PID.TID 0000.0001)                 2.048868197919577E+05,      /* J =  4 */
(PID.TID 0000.0001)                 2.220405216043041E+05,      /* J =  5 */
(PID.TID 0000.0001)                 2.365892017348392E+05,      /* J =  6 */
(PID.TID 0000.0001)                 2.491250781852558E+05,      /* J =  7 */
(PID.TID 0000.0001)                 2.599949918261881E+05,      /* J =  8 */
(PID.TID 0000.0001)                 2.694110134598581E+05,      /* J =  9 */
(PID.TID 0000.0001)                 2.775055554645015E+05,      /* J = 10 */
(PID.TID 0000.0001)                 2.843615645344775E+05,      /* J = 11 */
(PID.TID 0000.0001)                 2.900303768613599E+05,      /* J = 12 */
(PID.TID 0000.0001)                 2.945429307892709E+05,      /* J = 13 */
(PID.TID 0000.0001)                 2.979171143158405E+05,      /* J = 14 */
(PID.TID 0000.0001)                 3.001626787528886E+05,      /* J = 15 */
(PID.TID 0000.0001)     2 @  3.012844832048790E+05,             /* J = 16: 17 */
(PID.TID 0000.0001)                 3.001626787528886E+05,      /* J = 18 */
(PID.TID 0000.0001)                 2.979171143158405E+05,      /* J = 19 */
(PID.TID 0000.0001)                 2.945429307892709E+05,      /* J = 20 */
(PID.TID 0000.0001)                 2.900303768613599E+05,      /* J = 21 */
(PID.TID 0000.0001)                 2.843615645344775E+05,      /* J = 22 */
(PID.TID 0000.0001)                 2.775055554645015E+05,      /* J = 23 */
(PID.TID 0000.0001)                 2.694110134598581E+05,      /* J = 24 */
(PID.TID 0000.0001)                 2.599949918261881E+05,      /* J = 25 */
(PID.TID 0000.0001)                 2.491250781852558E+05,      /* J = 26 */
(PID.TID 0000.0001)                 2.365892017348392E+05,      /* J = 27 */
(PID.TID 0000.0001)                 2.220405216043041E+05,      /* J = 28 */
(PID.TID 0000.0001)                 2.048868197919577E+05,      /* J = 29 */
(PID.TID 0000.0001)                 1.840412227747703E+05,      /* J = 30 */
(PID.TID 0000.0001)                 1.572908084538706E+05,      /* J = 31 */
(PID.TID 0000.0001)                 1.202082051331828E+05       /* J = 32 */
(PID.TID 0000.0001)     ;
(PID.TID 0000.0001) dyF =  /* dyF(:,1,:,1) ( units: m ) */
(PID.TID 0000.0001)                 1.202082051331828E+05,      /* I =  1 */
(PID.TID 0000.0001)                 1.572908084538706E+05,      /* I =  2 */
(PID.TID 0000.0001)                 1.840412227747703E+05,      /* I =  3 */
(PID.TID 0000.0001)      . . .
(PID.TID 0000.0001)                 2.979171143158405E+05,      /* I = 46 */
(PID.TID 0000.0001)                 3.001626787528886E+05,      /* I = 47 */
(PID.TID 0000.0001)                 3.012844832048790E+05,      /* I = 48 */
(PID.TID 0000.0001)                 3.012844832048790E+05,      /* I = 49 */
(PID.TID 0000.0001)                 3.001626787528886E+05,      /* I = 50 */
(PID.TID 0000.0001)                 2.979171143158405E+05,      /* I = 51 */
(PID.TID 0000.0001)      . . .
(PID.TID 0000.0001)                 1.840412227747703E+05,      /* I = 94 */
(PID.TID 0000.0001)                 1.572908084538706E+05,      /* I = 95 */
(PID.TID 0000.0001)                 1.202082051331828E+05,      /* I = 96 */
(PID.TID 0000.0001)                 1.202082051331828E+05,      /* I = 97 */
(PID.TID 0000.0001)                 1.572908084538706E+05,      /* I = 98 */
(PID.TID 0000.0001)                 1.840412227747703E+05,      /* I = 99 */
(PID.TID 0000.0001)      . . .
(PID.TID 0000.0001)                 2.979171143158405E+05,      /* I =142 */
(PID.TID 0000.0001)                 3.001626787528886E+05,      /* I =143 */
(PID.TID 0000.0001)                 3.012844832048790E+05,      /* I =144 */
(PID.TID 0000.0001)                 3.012844832048790E+05,      /* I =145 */
(PID.TID 0000.0001)                 3.001626787528886E+05,      /* I =146 */
(PID.TID 0000.0001)                 2.979171143158405E+05,      /* I =147 */
(PID.TID 0000.0001)      . . .
(PID.TID 0000.0001)                 1.840412227747703E+05,      /* I =190 */
(PID.TID 0000.0001)                 1.572908084538706E+05,      /* I =191 */
(PID.TID 0000.0001)                 1.202082051331828E+05       /* I =192 */
(PID.TID 0000.0001)     ;
(PID.TID 0000.0001) dyF =  /* dyF(1,:,1,:) ( units: m ) */
(PID.TID 0000.0001)                 1.202082051331828E+05,      /* J =  1 */
(PID.TID 0000.0001)                 1.563594089971120E+05,      /* J =  2 */
(PID.TID 0000.0001)                 1.835530058121492E+05,      /* J =  3 */
(PID.TID 0000.0001)                 2.045883481718707E+05,      /* J =  4 */
(PID.TID 0000.0001)                 2.218350349844185E+05,      /* J =  5 */
(PID.TID 0000.0001)                 2.364352994647058E+05,      /* J =  6 */
(PID.TID 0000.0001)                 2.490022710862746E+05,      /* J =  7 */
(PID.TID 0000.0001)                 2.598919724358304E+05,      /* J =  8 */
(PID.TID 0000.0001)                 2.693210245495156E+05,      /* J =  9 */
(PID.TID 0000.0001)                 2.774243179696503E+05,      /* J = 10 */
(PID.TID 0000.0001)                 2.842862532064524E+05,      /* J = 11 */
(PID.TID 0000.0001)                 2.899590699694043E+05,      /* J = 12 */
(PID.TID 0000.0001)                 2.944742915095688E+05,      /* J = 13 */
(PID.TID 0000.0001)                 2.978501920522794E+05,      /* J = 14 */
(PID.TID 0000.0001)                 3.000967749619962E+05,      /* J = 15 */
(PID.TID 0000.0001)     2 @  3.012190981969055E+05,             /* J = 16: 17 */
(PID.TID 0000.0001)                 3.000967749619962E+05,      /* J = 18 */
(PID.TID 0000.0001)                 2.978501920522794E+05,      /* J = 19 */
(PID.TID 0000.0001)                 2.944742915095688E+05,      /* J = 20 */
(PID.TID 0000.0001)                 2.899590699694043E+05,      /* J = 21 */
(PID.TID 0000.0001)                 2.842862532064524E+05,      /* J = 22 */
(PID.TID 0000.0001)                 2.774243179696503E+05,      /* J = 23 */
(PID.TID 0000.0001)                 2.693210245495156E+05,      /* J = 24 */
(PID.TID 0000.0001)                 2.598919724358304E+05,      /* J = 25 */
(PID.TID 0000.0001)                 2.490022710862746E+05,      /* J = 26 */
(PID.TID 0000.0001)                 2.364352994647058E+05,      /* J = 27 */
(PID.TID 0000.0001)                 2.218350349844185E+05,      /* J = 28 */
(PID.TID 0000.0001)                 2.045883481718707E+05,      /* J = 29 */
(PID.TID 0000.0001)                 1.835530058121492E+05,      /* J = 30 */
(PID.TID 0000.0001)                 1.563594089971120E+05,      /* J = 31 */
(PID.TID 0000.0001)                 1.202082051331828E+05       /* J = 32 */
(PID.TID 0000.0001)     ;
(PID.TID 0000.0001) dxG =  /* dxG(:,1,:,1) ( units: m ) */
(PID.TID 0000.0001)                 1.009837800879055E+05,      /* I =  1 */
(PID.TID 0000.0001)                 1.534505834330338E+05,      /* I =  2 */
(PID.TID 0000.0001)                 1.823321598773926E+05,      /* I =  3 */
(PID.TID 0000.0001)      . . .
(PID.TID 0000.0001)                 2.977867909042096E+05,      /* I = 46 */
(PID.TID 0000.0001)                 3.000380090330854E+05,      /* I = 47 */
(PID.TID 0000.0001)                 3.011625828699101E+05,      /* I = 48 */
(PID.TID 0000.0001)                 3.011625828699101E+05,      /* I = 49 */
(PID.TID 0000.0001)                 3.000380090330854E+05,      /* I = 50 */
(PID.TID 0000.0001)                 2.977867909042096E+05,      /* I = 51 */
(PID.TID 0000.0001)      . . .
(PID.TID 0000.0001)                 1.823321598773926E+05,      /* I = 94 */
(PID.TID 0000.0001)                 1.534505834330338E+05,      /* I = 95 */
(PID.TID 0000.0001)                 1.009837800879055E+05,      /* I = 96 */
(PID.TID 0000.0001)                 1.009837800879055E+05,      /* I = 97 */
(PID.TID 0000.0001)                 1.534505834330338E+05,      /* I = 98 */
(PID.TID 0000.0001)                 1.823321598773926E+05,      /* I = 99 */
(PID.TID 0000.0001)      . . .
(PID.TID 0000.0001)                 2.977867909042096E+05,      /* I =142 */
(PID.TID 0000.0001)                 3.000380090330854E+05,      /* I =143 */
(PID.TID 0000.0001)                 3.011625828699101E+05,      /* I =144 */
(PID.TID 0000.0001)                 3.011625828699101E+05,      /* I =145 */
(PID.TID 0000.0001)                 3.000380090330854E+05,      /* I =146 */
(PID.TID 0000.0001)                 2.977867909042096E+05,      /* I =147 */
(PID.TID 0000.0001)      . . .
(PID.TID 0000.0001)                 1.823321598773926E+05,      /* I =190 */
(PID.TID 0000.0001)                 1.534505834330338E+05,      /* I =191 */
(PID.TID 0000.0001)                 1.009837800879055E+05       /* I =192 */
(PID.TID 0000.0001)     ;
(PID.TID 0000.0001) dxG =  /* dxG(1,:,1,:) ( units: m ) */
(PID.TID 0000.0001)                 1.009837800879055E+05,      /* J =  1 */
(PID.TID 0000.0001)                 1.403701524205399E+05,      /* J =  2 */
(PID.TID 0000.0001)                 1.716197227386011E+05,      /* J =  3 */
(PID.TID 0000.0001)                 1.950254041626018E+05,      /* J =  4 */
(PID.TID 0000.0001)                 2.138410773065497E+05,      /* J =  5 */
(PID.TID 0000.0001)                 2.295958105911512E+05,      /* J =  6 */
(PID.TID 0000.0001)                 2.430829951739083E+05,      /* J =  7 */
(PID.TID 0000.0001)                 2.547526806712889E+05,      /* J =  8 */
(PID.TID 0000.0001)                 2.648750305193301E+05,      /* J =  9 */
(PID.TID 0000.0001)                 2.736173771018112E+05,      /* J = 10 */
(PID.TID 0000.0001)                 2.810845823202647E+05,      /* J = 11 */
(PID.TID 0000.0001)                 2.873420591008078E+05,      /* J = 12 */
(PID.TID 0000.0001)                 2.924298293668651E+05,      /* J = 13 */
(PID.TID 0000.0001)                 2.963715635865306E+05,      /* J = 14 */
(PID.TID 0000.0001)                 2.991805843171258E+05,      /* J = 15 */
(PID.TID 0000.0001)                 3.008638765647886E+05,      /* J = 16 */
(PID.TID 0000.0001)                 3.014246674484008E+05,      /* J = 17 */
(PID.TID 0000.0001)                 3.008638765647886E+05,      /* J = 18 */
(PID.TID 0000.0001)                 2.991805843171258E+05,      /* J = 19 */
(PID.TID 0000.0001)                 2.963715635865306E+05,      /* J = 20 */
(PID.TID 0000.0001)                 2.924298293668651E+05,      /* J = 21 */
(PID.TID 0000.0001)                 2.873420591008078E+05,      /* J = 22 */
(PID.TID 0000.0001)                 2.810845823202647E+05,      /* J = 23 */
(PID.TID 0000.0001)                 2.736173771018112E+05,      /* J = 24 */
(PID.TID 0000.0001)                 2.648750305193301E+05,      /* J = 25 */
(PID.TID 0000.0001)                 2.547526806712889E+05,      /* J = 26 */
(PID.TID 0000.0001)                 2.430829951739083E+05,      /* J = 27 */
(PID.TID 0000.0001)                 2.295958105911512E+05,      /* J = 28 */
(PID.TID 0000.0001)                 2.138410773065497E+05,      /* J = 29 */
(PID.TID 0000.0001)                 1.950254041626018E+05,      /* J = 30 */
(PID.TID 0000.0001)                 1.716197227386011E+05,      /* J = 31 */
(PID.TID 0000.0001)                 1.403701524205399E+05       /* J = 32 */
(PID.TID 0000.0001)     ;
(PID.TID 0000.0001) dyG =  /* dyG(:,1,:,1) ( units: m ) */
(PID.TID 0000.0001)                 1.009837800879055E+05,      /* I =  1 */
(PID.TID 0000.0001)                 1.403701524205399E+05,      /* I =  2 */
(PID.TID 0000.0001)                 1.716197227386011E+05,      /* I =  3 */
(PID.TID 0000.0001)      . . .
(PID.TID 0000.0001)                 2.963715635865306E+05,      /* I = 46 */
(PID.TID 0000.0001)                 2.991805843171258E+05,      /* I = 47 */
(PID.TID 0000.0001)                 3.008638765647886E+05,      /* I = 48 */
(PID.TID 0000.0001)                 3.014246674484008E+05,      /* I = 49 */
(PID.TID 0000.0001)                 3.008638765647886E+05,      /* I = 50 */
(PID.TID 0000.0001)                 2.991805843171258E+05,      /* I = 51 */
(PID.TID 0000.0001)      . . .
(PID.TID 0000.0001)                 1.950254041626018E+05,      /* I = 94 */
(PID.TID 0000.0001)                 1.716197227386011E+05,      /* I = 95 */
(PID.TID 0000.0001)                 1.403701524205399E+05,      /* I = 96 */
(PID.TID 0000.0001)                 1.009837800879055E+05,      /* I = 97 */
(PID.TID 0000.0001)                 1.403701524205399E+05,      /* I = 98 */
(PID.TID 0000.0001)                 1.716197227386011E+05,      /* I = 99 */
(PID.TID 0000.0001)      . . .
(PID.TID 0000.0001)                 2.963715635865306E+05,      /* I =142 */
(PID.TID 0000.0001)                 2.991805843171258E+05,      /* I =143 */
(PID.TID 0000.0001)                 3.008638765647886E+05,      /* I =144 */
(PID.TID 0000.0001)                 3.014246674484008E+05,      /* I =145 */
(PID.TID 0000.0001)                 3.008638765647886E+05,      /* I =146 */
(PID.TID 0000.0001)                 2.991805843171258E+05,      /* I =147 */
(PID.TID 0000.0001)      . . .
(PID.TID 0000.0001)                 1.950254041626018E+05,      /* I =190 */
(PID.TID 0000.0001)                 1.716197227386011E+05,      /* I =191 */
(PID.TID 0000.0001)                 1.403701524205399E+05       /* I =192 */
(PID.TID 0000.0001)     ;
(PID.TID 0000.0001) dyG =  /* dyG(1,:,1,:) ( units: m ) */
(PID.TID 0000.0001)                 1.009837800879055E+05,      /* J =  1 */
(PID.TID 0000.0001)                 1.534505834330338E+05,      /* J =  2 */
(PID.TID 0000.0001)                 1.823321598773926E+05,      /* J =  3 */
(PID.TID 0000.0001)                 2.038999045536999E+05,      /* J =  4 */
(PID.TID 0000.0001)                 2.213884732245467E+05,      /* J =  5 */
(PID.TID 0000.0001)                 2.361211699596122E+05,      /* J =  6 */
(PID.TID 0000.0001)                 2.487693460283865E+05,      /* J =  7 */
(PID.TID 0000.0001)                 2.597126963772147E+05,      /* J =  8 */
(PID.TID 0000.0001)                 2.691790288994575E+05,      /* J =  9 */
(PID.TID 0000.0001)                 2.773091043277394E+05,      /* J = 10 */
(PID.TID 0000.0001)                 2.841906470085516E+05,      /* J = 11 */
(PID.TID 0000.0001)                 2.898778860929753E+05,      /* J = 12 */
(PID.TID 0000.0001)                 2.944035815526416E+05,      /* J = 13 */
(PID.TID 0000.0001)                 2.977867909042096E+05,      /* J = 14 */
(PID.TID 0000.0001)                 3.000380090330854E+05,      /* J = 15 */
(PID.TID 0000.0001)     2 @  3.011625828699101E+05,             /* J = 16: 17 */
(PID.TID 0000.0001)                 3.000380090330854E+05,      /* J = 18 */
(PID.TID 0000.0001)                 2.977867909042096E+05,      /* J = 19 */
(PID.TID 0000.0001)                 2.944035815526416E+05,      /* J = 20 */
(PID.TID 0000.0001)                 2.898778860929753E+05,      /* J = 21 */
(PID.TID 0000.0001)                 2.841906470085516E+05,      /* J = 22 */
(PID.TID 0000.0001)                 2.773091043277394E+05,      /* J = 23 */
(PID.TID 0000.0001)                 2.691790288994575E+05,      /* J = 24 */
(PID.TID 0000.0001)                 2.597126963772147E+05,      /* J = 25 */
(PID.TID 0000.0001)                 2.487693460283865E+05,      /* J = 26 */
(PID.TID 0000.0001)                 2.361211699596122E+05,      /* J = 27 */
(PID.TID 0000.0001)                 2.213884732245467E+05,      /* J = 28 */
(PID.TID 0000.0001)                 2.038999045536999E+05,      /* J = 29 */
(PID.TID 0000.0001)                 1.823321598773926E+05,      /* J = 30 */
(PID.TID 0000.0001)                 1.534505834330338E+05,      /* J = 31 */
(PID.TID 0000.0001)                 1.009837800879055E+05       /* J = 32 */
(PID.TID 0000.0001)     ;
(PID.TID 0000.0001) dxC =  /* dxC(:,1,:,1) ( units: m ) */
(PID.TID 0000.0001)                 1.135373000692312E+05,      /* I =  1 */
(PID.TID 0000.0001)                 1.391343389937106E+05,      /* I =  2 */
(PID.TID 0000.0001)                 1.709574999026267E+05,      /* I =  3 */
(PID.TID 0000.0001)      . . .
(PID.TID 0000.0001)                 2.963038832565530E+05,      /* I = 46 */
(PID.TID 0000.0001)                 2.991142470004740E+05,      /* I = 47 */
(PID.TID 0000.0001)                 3.007982711627968E+05,      /* I = 48 */
(PID.TID 0000.0001)                 3.013593857228136E+05,      /* I = 49 */
(PID.TID 0000.0001)                 3.007982711627968E+05,      /* I = 50 */
(PID.TID 0000.0001)                 2.991142470004740E+05,      /* I = 51 */
(PID.TID 0000.0001)      . . .
(PID.TID 0000.0001)                 1.946503699269892E+05,      /* I = 94 */
(PID.TID 0000.0001)                 1.709574999026267E+05,      /* I = 95 */
(PID.TID 0000.0001)                 1.391343389937106E+05,      /* I = 96 */
(PID.TID 0000.0001)                 1.135373000692312E+05,      /* I = 97 */
(PID.TID 0000.0001)                 1.391343389937106E+05,      /* I = 98 */
(PID.TID 0000.0001)                 1.709574999026267E+05,      /* I = 99 */
(PID.TID 0000.0001)      . . .
(PID.TID 0000.0001)                 2.963038832565530E+05,      /* I =142 */
(PID.TID 0000.0001)                 2.991142470004740E+05,      /* I =143 */
(PID.TID 0000.0001)                 3.007982711627968E+05,      /* I =144 */
(PID.TID 0000.0001)                 3.013593857228136E+05,      /* I =145 */
(PID.TID 0000.0001)                 3.007982711627968E+05,      /* I =146 */
(PID.TID 0000.0001)                 2.991142470004740E+05,      /* I =147 */
(PID.TID 0000.0001)      . . .
(PID.TID 0000.0001)                 1.946503699269892E+05,      /* I =190 */
(PID.TID 0000.0001)                 1.709574999026267E+05,      /* I =191 */
(PID.TID 0000.0001)                 1.391343389937106E+05       /* I =192 */
(PID.TID 0000.0001)     ;
(PID.TID 0000.0001) dxC =  /* dxC(1,:,1,:) ( units: m ) */
(PID.TID 0000.0001)                 1.135373000692312E+05,      /* J =  1 */
(PID.TID 0000.0001)                 1.549545757850771E+05,      /* J =  2 */
(PID.TID 0000.0001)                 1.829777599966776E+05,      /* J =  3 */
(PID.TID 0000.0001)                 2.042717761866506E+05,      /* J =  4 */
(PID.TID 0000.0001)                 2.216367828252819E+05,      /* J =  5 */
(PID.TID 0000.0001)                 2.363029564123586E+05,      /* J =  6 */
(PID.TID 0000.0001)                 2.489113743322025E+05,      /* J =  7 */
(PID.TID 0000.0001)                 2.598293319150326E+05,      /* J =  8 */
(PID.TID 0000.0001)                 2.692787333338535E+05,      /* J =  9 */
(PID.TID 0000.0001)                 2.773972106720365E+05,      /* J = 10 */
(PID.TID 0000.0001)                 2.842706922224558E+05,      /* J = 11 */
(PID.TID 0000.0001)                 2.899523122489404E+05,      /* J = 12 */
(PID.TID 0000.0001)                 2.944741346384699E+05,      /* J = 13 */
(PID.TID 0000.0001)                 2.978547649292580E+05,      /* J = 14 */
(PID.TID 0000.0001)                 3.001044073506459E+05,      /* J = 15 */
(PID.TID 0000.0001)     2 @  3.012281885409289E+05,             /* J = 16: 17 */
(PID.TID 0000.0001)                 3.001044073506459E+05,      /* J = 18 */
(PID.TID 0000.0001)                 2.978547649292580E+05,      /* J = 19 */
(PID.TID 0000.0001)                 2.944741346384699E+05,      /* J = 20 */
(PID.TID 0000.0001)                 2.899523122489404E+05,      /* J = 21 */
(PID.TID 0000.0001)                 2.842706922224558E+05,      /* J = 22 */
(PID.TID 0000.0001)                 2.773972106720365E+05,      /* J = 23 */
(PID.TID 0000.0001)                 2.692787333338535E+05,      /* J = 24 */
(PID.TID 0000.0001)                 2.598293319150326E+05,      /* J = 25 */
(PID.TID 0000.0001)                 2.489113743322025E+05,      /* J = 26 */
(PID.TID 0000.0001)                 2.363029564123586E+05,      /* J = 27 */
(PID.TID 0000.0001)                 2.216367828252819E+05,      /* J = 28 */
(PID.TID 0000.0001)                 2.042717761866506E+05,      /* J = 29 */
(PID.TID 0000.0001)                 1.829777599966776E+05,      /* J = 30 */
(PID.TID 0000.0001)                 1.549545757850771E+05,      /* J = 31 */
(PID.TID 0000.0001)                 1.135373000692312E+05       /* J = 32 */
(PID.TID 0000.0001)     ;
(PID.TID 0000.0001) dyC =  /* dyC(:,1,:,1) ( units: m ) */
(PID.TID 0000.0001)                 1.135373000692312E+05,      /* I =  1 */
(PID.TID 0000.0001)                 1.549545757850771E+05,      /* I =  2 */
(PID.TID 0000.0001)                 1.829777599966776E+05,      /* I =  3 */
(PID.TID 0000.0001)      . . .
(PID.TID 0000.0001)                 2.978547649292580E+05,      /* I = 46 */
(PID.TID 0000.0001)                 3.001044073506459E+05,      /* I = 47 */
(PID.TID 0000.0001)                 3.012281885409289E+05,      /* I = 48 */
(PID.TID 0000.0001)                 3.012281885409289E+05,      /* I = 49 */
(PID.TID 0000.0001)                 3.001044073506459E+05,      /* I = 50 */
(PID.TID 0000.0001)                 2.978547649292580E+05,      /* I = 51 */
(PID.TID 0000.0001)      . . .
(PID.TID 0000.0001)                 1.829777599966776E+05,      /* I = 94 */
(PID.TID 0000.0001)                 1.549545757850771E+05,      /* I = 95 */
(PID.TID 0000.0001)                 1.135373000692312E+05,      /* I = 96 */
(PID.TID 0000.0001)                 1.135373000692312E+05,      /* I = 97 */
(PID.TID 0000.0001)                 1.549545757850771E+05,      /* I = 98 */
(PID.TID 0000.0001)                 1.829777599966776E+05,      /* I = 99 */
(PID.TID 0000.0001)      . . .
(PID.TID 0000.0001)                 2.978547649292580E+05,      /* I =142 */
(PID.TID 0000.0001)                 3.001044073506459E+05,      /* I =143 */
(PID.TID 0000.0001)                 3.012281885409289E+05,      /* I =144 */
(PID.TID 0000.0001)                 3.012281885409289E+05,      /* I =145 */
(PID.TID 0000.0001)                 3.001044073506459E+05,      /* I =146 */
(PID.TID 0000.0001)                 2.978547649292580E+05,      /* I =147 */
(PID.TID 0000.0001)      . . .
(PID.TID 0000.0001)                 1.829777599966776E+05,      /* I =190 */
(PID.TID 0000.0001)                 1.549545757850771E+05,      /* I =191 */
(PID.TID 0000.0001)                 1.135373000692312E+05       /* I =192 */
(PID.TID 0000.0001)     ;
(PID.TID 0000.0001) dyC =  /* dyC(1,:,1,:) ( units: m ) */
(PID.TID 0000.0001)                 1.135373000692312E+05,      /* J =  1 */
(PID.TID 0000.0001)                 1.391343389937106E+05,      /* J =  2 */
(PID.TID 0000.0001)                 1.709574999026267E+05,      /* J =  3 */
(PID.TID 0000.0001)                 1.946503699269892E+05,      /* J =  4 */
(PID.TID 0000.0001)                 2.135964483342134E+05,      /* J =  5 */
(PID.TID 0000.0001)                 2.294195678257306E+05,      /* J =  6 */
(PID.TID 0000.0001)                 2.429464709770498E+05,      /* J =  7 */
(PID.TID 0000.0001)                 2.546408290696998E+05,      /* J =  8 */
(PID.TID 0000.0001)                 2.647791839299727E+05,      /* J =  9 */
(PID.TID 0000.0001)                 2.735321911346108E+05,      /* J = 10 */
(PID.TID 0000.0001)                 2.810065951609633E+05,      /* J = 11 */
(PID.TID 0000.0001)                 2.872689479506990E+05,      /* J = 12 */
(PID.TID 0000.0001)                 2.923599955312932E+05,      /* J = 13 */
(PID.TID 0000.0001)                 2.963038832565530E+05,      /* J = 14 */
(PID.TID 0000.0001)                 2.991142470004740E+05,      /* J = 15 */
(PID.TID 0000.0001)                 3.007982711627968E+05,      /* J = 16 */
(PID.TID 0000.0001)                 3.013593857228136E+05,      /* J = 17 */
(PID.TID 0000.0001)                 3.007982711627968E+05,      /* J = 18 */
(PID.TID 0000.0001)                 2.991142470004740E+05,      /* J = 19 */
(PID.TID 0000.0001)                 2.963038832565530E+05,      /* J = 20 */
(PID.TID 0000.0001)                 2.923599955312932E+05,      /* J = 21 */
(PID.TID 0000.0001)                 2.872689479506990E+05,      /* J = 22 */
(PID.TID 0000.0001)                 2.810065951609633E+05,      /* J = 23 */
(PID.TID 0000.0001)                 2.735321911346108E+05,      /* J = 24 */
(PID.TID 0000.0001)                 2.647791839299727E+05,      /* J = 25 */
(PID.TID 0000.0001)                 2.546408290696998E+05,      /* J = 26 */
(PID.TID 0000.0001)                 2.429464709770498E+05,      /* J = 27 */
(PID.TID 0000.0001)                 2.294195678257306E+05,      /* J = 28 */
(PID.TID 0000.0001)                 2.135964483342134E+05,      /* J = 29 */
(PID.TID 0000.0001)                 1.946503699269892E+05,      /* J = 30 */
(PID.TID 0000.0001)                 1.709574999026267E+05,      /* J = 31 */
(PID.TID 0000.0001)                 1.391343389937106E+05       /* J = 32 */
(PID.TID 0000.0001)     ;
(PID.TID 0000.0001) dxV =  /* dxV(:,1,:,1) ( units: m ) */
(PID.TID 0000.0001)                 8.015229982413632E+04,      /* I =  1 */
(PID.TID 0000.0001)                 1.333130744933864E+05,      /* I =  2 */
(PID.TID 0000.0001)                 1.691744868129062E+05,      /* I =  3 */
(PID.TID 0000.0001)      . . .
(PID.TID 0000.0001)                 2.962371870847826E+05,      /* I = 46 */
(PID.TID 0000.0001)                 2.990534755671296E+05,      /* I = 47 */
(PID.TID 0000.0001)                 3.007409169495504E+05,      /* I = 48 */
(PID.TID 0000.0001)                 3.013031486919771E+05,      /* I = 49 */
(PID.TID 0000.0001)                 3.007409169495504E+05,      /* I = 50 */
(PID.TID 0000.0001)                 2.990534755671296E+05,      /* I = 51 */
(PID.TID 0000.0001)      . . .
(PID.TID 0000.0001)                 1.937548202849060E+05,      /* I = 94 */
(PID.TID 0000.0001)                 1.691744868129062E+05,      /* I = 95 */
(PID.TID 0000.0001)                 1.333130744933864E+05,      /* I = 96 */
(PID.TID 0000.0001)                 8.015229982413632E+04,      /* I = 97 */
(PID.TID 0000.0001)                 1.333130744933864E+05,      /* I = 98 */
(PID.TID 0000.0001)                 1.691744868129062E+05,      /* I = 99 */
(PID.TID 0000.0001)      . . .
(PID.TID 0000.0001)                 2.962371870847826E+05,      /* I =142 */
(PID.TID 0000.0001)                 2.990534755671296E+05,      /* I =143 */
(PID.TID 0000.0001)                 3.007409169495504E+05,      /* I =144 */
(PID.TID 0000.0001)                 3.013031486919771E+05,      /* I =145 */
(PID.TID 0000.0001)                 3.007409169495504E+05,      /* I =146 */
(PID.TID 0000.0001)                 2.990534755671296E+05,      /* I =147 */
(PID.TID 0000.0001)      . . .
(PID.TID 0000.0001)                 1.937548202849060E+05,      /* I =190 */
(PID.TID 0000.0001)                 1.691744868129062E+05,      /* I =191 */
(PID.TID 0000.0001)                 1.333130744933864E+05       /* I =192 */
(PID.TID 0000.0001)     ;
(PID.TID 0000.0001) dxV =  /* dxV(1,:,1,:) ( units: m ) */
(PID.TID 0000.0001)                 8.015229982413632E+04,      /* J =  1 */
(PID.TID 0000.0001)                 1.362652340208229E+05,      /* J =  2 */
(PID.TID 0000.0001)                 1.701080315742101E+05,      /* J =  3 */
(PID.TID 0000.0001)                 1.942331448101592E+05,      /* J =  4 */
(PID.TID 0000.0001)                 2.133486626971531E+05,      /* J =  5 */
(PID.TID 0000.0001)                 2.292584591272880E+05,      /* J =  6 */
(PID.TID 0000.0001)                 2.428369969078989E+05,      /* J =  7 */
(PID.TID 0000.0001)                 2.545652950875683E+05,      /* J =  8 */
(PID.TID 0000.0001)                 2.647274964828302E+05,      /* J =  9 */
(PID.TID 0000.0001)                 2.734980225206389E+05,      /* J = 10 */
(PID.TID 0000.0001)                 2.809856491525217E+05,      /* J = 11 */
(PID.TID 0000.0001)                 2.872580915202295E+05,      /* J = 12 */
(PID.TID 0000.0001)                 2.923567890694162E+05,      /* J = 13 */
(PID.TID 0000.0001)                 2.963063101754721E+05,      /* J = 14 */
(PID.TID 0000.0001)                 2.991205495886625E+05,      /* J = 15 */
(PID.TID 0000.0001)                 3.008068453676764E+05,      /* J = 16 */
(PID.TID 0000.0001)                 3.013686170436881E+05,      /* J = 17 */
(PID.TID 0000.0001)                 3.008068453676764E+05,      /* J = 18 */
(PID.TID 0000.0001)                 2.991205495886625E+05,      /* J = 19 */
(PID.TID 0000.0001)                 2.963063101754721E+05,      /* J = 20 */
(PID.TID 0000.0001)                 2.923567890694162E+05,      /* J = 21 */
(PID.TID 0000.0001)                 2.872580915202295E+05,      /* J = 22 */
(PID.TID 0000.0001)                 2.809856491525217E+05,      /* J = 23 */
(PID.TID 0000.0001)                 2.734980225206389E+05,      /* J = 24 */
(PID.TID 0000.0001)                 2.647274964828302E+05,      /* J = 25 */
(PID.TID 0000.0001)                 2.545652950875683E+05,      /* J = 26 */
(PID.TID 0000.0001)                 2.428369969078989E+05,      /* J = 27 */
(PID.TID 0000.0001)                 2.292584591272880E+05,      /* J = 28 */
(PID.TID 0000.0001)                 2.133486626971531E+05,      /* J = 29 */
(PID.TID 0000.0001)                 1.942331448101592E+05,      /* J = 30 */
(PID.TID 0000.0001)                 1.701080315742101E+05,      /* J = 31 */
(PID.TID 0000.0001)                 1.362652340208229E+05       /* J = 32 */
(PID.TID 0000.0001)     ;
(PID.TID 0000.0001) dyU =  /* dyU(:,1,:,1) ( units: m ) */
(PID.TID 0000.0001)                 8.015229982413632E+04,      /* I =  1 */
(PID.TID 0000.0001)                 1.362652340208229E+05,      /* I =  2 */
(PID.TID 0000.0001)                 1.701080315742101E+05,      /* I =  3 */
(PID.TID 0000.0001)      . . .
(PID.TID 0000.0001)                 2.963063101754721E+05,      /* I = 46 */
(PID.TID 0000.0001)                 2.991205495886625E+05,      /* I = 47 */
(PID.TID 0000.0001)                 3.008068453676764E+05,      /* I = 48 */
(PID.TID 0000.0001)                 3.013686170436881E+05,      /* I = 49 */
(PID.TID 0000.0001)                 3.008068453676764E+05,      /* I = 50 */
(PID.TID 0000.0001)                 2.991205495886625E+05,      /* I = 51 */
(PID.TID 0000.0001)      . . .
(PID.TID 0000.0001)                 1.942331448101592E+05,      /* I = 94 */
(PID.TID 0000.0001)                 1.701080315742101E+05,      /* I = 95 */
(PID.TID 0000.0001)                 1.362652340208229E+05,      /* I = 96 */
(PID.TID 0000.0001)                 8.015229982413632E+04,      /* I = 97 */
(PID.TID 0000.0001)                 1.362652340208229E+05,      /* I = 98 */
(PID.TID 0000.0001)                 1.701080315742101E+05,      /* I = 99 */
(PID.TID 0000.0001)      . . .
(PID.TID 0000.0001)                 2.963063101754721E+05,      /* I =142 */
(PID.TID 0000.0001)                 2.991205495886625E+05,      /* I =143 */
(PID.TID 0000.0001)                 3.008068453676764E+05,      /* I =144 */
(PID.TID 0000.0001)                 3.013686170436881E+05,      /* I =145 */
(PID.TID 0000.0001)                 3.008068453676764E+05,      /* I =146 */
(PID.TID 0000.0001)                 2.991205495886625E+05,      /* I =147 */
(PID.TID 0000.0001)      . . .
(PID.TID 0000.0001)                 1.942331448101592E+05,      /* I =190 */
(PID.TID 0000.0001)                 1.701080315742101E+05,      /* I =191 */
(PID.TID 0000.0001)                 1.362652340208229E+05       /* I =192 */
(PID.TID 0000.0001)     ;
(PID.TID 0000.0001) dyU =  /* dyU(1,:,1,:) ( units: m ) */
(PID.TID 0000.0001)                 8.015229982413632E+04,      /* J =  1 */
(PID.TID 0000.0001)                 1.333130744933864E+05,      /* J =  2 */
(PID.TID 0000.0001)                 1.691744868129062E+05,      /* J =  3 */
(PID.TID 0000.0001)                 1.937548202849060E+05,      /* J =  4 */
(PID.TID 0000.0001)                 2.130490056267208E+05,      /* J =  5 */
(PID.TID 0000.0001)                 2.290479919481738E+05,      /* J =  6 */
(PID.TID 0000.0001)                 2.426774358027004E+05,      /* J =  7 */
(PID.TID 0000.0001)                 2.544372984215561E+05,      /* J =  8 */
(PID.TID 0000.0001)                 2.646201463834826E+05,      /* J =  9 */
(PID.TID 0000.0001)                 2.734046499619031E+05,      /* J = 10 */
(PID.TID 0000.0001)                 2.809019351693761E+05,      /* J = 11 */
(PID.TID 0000.0001)                 2.871811105274442E+05,      /* J = 12 */
(PID.TID 0000.0001)                 2.922844849381675E+05,      /* J = 13 */
(PID.TID 0000.0001)                 2.962371870847826E+05,      /* J = 14 */
(PID.TID 0000.0001)                 2.990534755671296E+05,      /* J = 15 */
(PID.TID 0000.0001)                 3.007409169495504E+05,      /* J = 16 */
(PID.TID 0000.0001)                 3.013031486919771E+05,      /* J = 17 */
(PID.TID 0000.0001)                 3.007409169495504E+05,      /* J = 18 */
(PID.TID 0000.0001)                 2.990534755671296E+05,      /* J = 19 */
(PID.TID 0000.0001)                 2.962371870847826E+05,      /* J = 20 */
(PID.TID 0000.0001)                 2.922844849381675E+05,      /* J = 21 */
(PID.TID 0000.0001)                 2.871811105274442E+05,      /* J = 22 */
(PID.TID 0000.0001)                 2.809019351693761E+05,      /* J = 23 */
(PID.TID 0000.0001)                 2.734046499619031E+05,      /* J = 24 */
(PID.TID 0000.0001)                 2.646201463834826E+05,      /* J = 25 */
(PID.TID 0000.0001)                 2.544372984215561E+05,      /* J = 26 */
(PID.TID 0000.0001)                 2.426774358027004E+05,      /* J = 27 */
(PID.TID 0000.0001)                 2.290479919481738E+05,      /* J = 28 */
(PID.TID 0000.0001)                 2.130490056267208E+05,      /* J = 29 */
(PID.TID 0000.0001)                 1.937548202849060E+05,      /* J = 30 */
(PID.TID 0000.0001)                 1.691744868129062E+05,      /* J = 31 */
(PID.TID 0000.0001)                 1.333130744933864E+05       /* J = 32 */
(PID.TID 0000.0001)     ;
(PID.TID 0000.0001) rA  =  /* rA (:,1,:,1) ( units: m^2 ) */
(PID.TID 0000.0001)                 1.549786705672200E+10,      /* I =  1 */
(PID.TID 0000.0001)                 2.487202533723945E+10,      /* I =  2 */
(PID.TID 0000.0001)                 3.392265412140352E+10,      /* I =  3 */
(PID.TID 0000.0001)      . . .
(PID.TID 0000.0001)                 8.871245486529788E+10,      /* I = 46 */
(PID.TID 0000.0001)                 9.005359372079962E+10,      /* I = 47 */
(PID.TID 0000.0001)                 9.072735712796770E+10,      /* I = 48 */
(PID.TID 0000.0001)                 9.072735712796770E+10,      /* I = 49 */
(PID.TID 0000.0001)                 9.005359372079962E+10,      /* I = 50 */
(PID.TID 0000.0001)                 8.871245486529788E+10,      /* I = 51 */
(PID.TID 0000.0001)      . . .
(PID.TID 0000.0001)                 3.392265412140352E+10,      /* I = 94 */
(PID.TID 0000.0001)                 2.487202533723945E+10,      /* I = 95 */
(PID.TID 0000.0001)                 1.549786705672200E+10,      /* I = 96 */
(PID.TID 0000.0001)                 1.549786705672200E+10,      /* I = 97 */
(PID.TID 0000.0001)                 2.487202533723945E+10,      /* I = 98 */
(PID.TID 0000.0001)                 3.392265412140352E+10,      /* I = 99 */
(PID.TID 0000.0001)      . . .
(PID.TID 0000.0001)                 8.871245486529788E+10,      /* I =142 */
(PID.TID 0000.0001)                 9.005359372079962E+10,      /* I =143 */
(PID.TID 0000.0001)                 9.072735712796770E+10,      /* I =144 */
(PID.TID 0000.0001)                 9.072735712796770E+10,      /* I =145 */
(PID.TID 0000.0001)                 9.005359372079962E+10,      /* I =146 */
(PID.TID 0000.0001)                 8.871245486529788E+10,      /* I =147 */
(PID.TID 0000.0001)      . . .
(PID.TID 0000.0001)                 3.392265412140352E+10,      /* I =190 */
(PID.TID 0000.0001)                 2.487202533723945E+10,      /* I =191 */
(PID.TID 0000.0001)                 1.549786705672200E+10       /* I =192 */
(PID.TID 0000.0001)     ;
(PID.TID 0000.0001) rA  =  /* rA (1,:,1,:) ( units: m^2 ) */
(PID.TID 0000.0001)                 1.549786705672200E+10,      /* J =  1 */
(PID.TID 0000.0001)                 2.487202533723945E+10,      /* J =  2 */
(PID.TID 0000.0001)                 3.392265412140352E+10,      /* J =  3 */
(PID.TID 0000.0001)                 4.200427377313133E+10,      /* J =  4 */
(PID.TID 0000.0001)                 4.931323764668228E+10,      /* J =  5 */
(PID.TID 0000.0001)                 5.597545074899419E+10,      /* J =  6 */
(PID.TID 0000.0001)                 6.205603937791459E+10,      /* J =  7 */
(PID.TID 0000.0001)                 6.758299971934573E+10,      /* J =  8 */
(PID.TID 0000.0001)                 7.256155653843707E+10,      /* J =  9 */
(PID.TID 0000.0001)                 7.698291833687604E+10,      /* J = 10 */
(PID.TID 0000.0001)                 8.083005486272011E+10,      /* J = 11 */
(PID.TID 0000.0001)                 8.408183191745641E+10,      /* J = 12 */
(PID.TID 0000.0001)                 8.671615787312848E+10,      /* J = 13 */
(PID.TID 0000.0001)                 8.871245486529788E+10,      /* J = 14 */
(PID.TID 0000.0001)                 9.005359372079964E+10,      /* J = 15 */
(PID.TID 0000.0001)     2 @  9.072735712796770E+10,             /* J = 16: 17 */
(PID.TID 0000.0001)                 9.005359372079964E+10,      /* J = 18 */
(PID.TID 0000.0001)                 8.871245486529788E+10,      /* J = 19 */
(PID.TID 0000.0001)                 8.671615787312848E+10,      /* J = 20 */
(PID.TID 0000.0001)                 8.408183191745641E+10,      /* J = 21 */
(PID.TID 0000.0001)                 8.083005486272011E+10,      /* J = 22 */
(PID.TID 0000.0001)                 7.698291833687604E+10,      /* J = 23 */
(PID.TID 0000.0001)                 7.256155653843707E+10,      /* J = 24 */
(PID.TID 0000.0001)                 6.758299971934573E+10,      /* J = 25 */
(PID.TID 0000.0001)                 6.205603937791459E+10,      /* J = 26 */
(PID.TID 0000.0001)                 5.597545074899419E+10,      /* J = 27 */
(PID.TID 0000.0001)                 4.931323764668228E+10,      /* J = 28 */
(PID.TID 0000.0001)                 4.200427377313133E+10,      /* J = 29 */
(PID.TID 0000.0001)                 3.392265412140352E+10,      /* J = 30 */
(PID.TID 0000.0001)                 2.487202533723945E+10,      /* J = 31 */
(PID.TID 0000.0001)                 1.549786705672200E+10       /* J = 32 */
(PID.TID 0000.0001)     ;
(PID.TID 0000.0001) rAw =  /* rAw(:,1,:,1) ( units: m^2 ) */
(PID.TID 0000.0001)                 1.146542574196578E+10,      /* I =  1 */
(PID.TID 0000.0001)                 1.953030837147821E+10,      /* I =  2 */
(PID.TID 0000.0001)                 2.933967873337320E+10,      /* I =  3 */
(PID.TID 0000.0001)      . . .
(PID.TID 0000.0001)                 8.781604517750543E+10,      /* I = 46 */
(PID.TID 0000.0001)                 8.948917519517891E+10,      /* I = 47 */
(PID.TID 0000.0001)                 9.049933392602551E+10,      /* I = 48 */
(PID.TID 0000.0001)                 9.083715262395342E+10,      /* I = 49 */
(PID.TID 0000.0001)                 9.049933392602551E+10,      /* I = 50 */
(PID.TID 0000.0001)                 8.948917519517891E+10,      /* I = 51 */
(PID.TID 0000.0001)      . . .
(PID.TID 0000.0001)                 3.796176706541101E+10,      /* I = 94 */
(PID.TID 0000.0001)                 2.933967873337320E+10,      /* I = 95 */
(PID.TID 0000.0001)                 1.953030837147821E+10,      /* I = 96 */
(PID.TID 0000.0001)                 1.146542574196578E+10,      /* I = 97 */
(PID.TID 0000.0001)                 1.953030837147821E+10,      /* I = 98 */
(PID.TID 0000.0001)                 2.933967873337320E+10,      /* I = 99 */
(PID.TID 0000.0001)      . . .
(PID.TID 0000.0001)                 8.781604517750543E+10,      /* I =142 */
(PID.TID 0000.0001)                 8.948917519517891E+10,      /* I =143 */
(PID.TID 0000.0001)                 9.049933392602551E+10,      /* I =144 */
(PID.TID 0000.0001)                 9.083715262395342E+10,      /* I =145 */
(PID.TID 0000.0001)                 9.049933392602551E+10,      /* I =146 */
(PID.TID 0000.0001)                 8.948917519517891E+10,      /* I =147 */
(PID.TID 0000.0001)      . . .
(PID.TID 0000.0001)                 3.796176706541101E+10,      /* I =190 */
(PID.TID 0000.0001)                 2.933967873337320E+10,      /* I =191 */
(PID.TID 0000.0001)                 1.953030837147821E+10       /* I =192 */
(PID.TID 0000.0001)     ;
(PID.TID 0000.0001) rAw =  /* rAw(1,:,1,:) ( units: m^2 ) */
(PID.TID 0000.0001)                 1.146542574196578E+10,      /* J =  1 */
(PID.TID 0000.0001)                 2.377787005983833E+10,      /* J =  2 */
(PID.TID 0000.0001)                 3.336273018972140E+10,      /* J =  3 */
(PID.TID 0000.0001)                 4.165099566747280E+10,      /* J =  4 */
(PID.TID 0000.0001)                 4.906782896008959E+10,      /* J =  5 */
(PID.TID 0000.0001)                 5.579613053300137E+10,      /* J =  6 */
(PID.TID 0000.0001)                 6.192151981164894E+10,      /* J =  7 */
(PID.TID 0000.0001)                 6.748097638954340E+10,      /* J =  8 */
(PID.TID 0000.0001)                 7.248418794208269E+10,      /* J =  9 */
(PID.TID 0000.0001)                 7.692477203447566E+10,      /* J = 10 */
(PID.TID 0000.0001)                 8.078707194826852E+10,      /* J = 11 */
(PID.TID 0000.0001)                 8.405076334249313E+10,      /* J = 12 */
(PID.TID 0000.0001)                 8.669423991218034E+10,      /* J = 13 */
(PID.TID 0000.0001)                 8.869721460381146E+10,      /* J = 14 */
(PID.TID 0000.0001)                 9.004272888354184E+10,      /* J = 15 */
(PID.TID 0000.0001)     2 @  9.071865929421040E+10,             /* J = 16: 17 */
(PID.TID 0000.0001)                 9.004272888354184E+10,      /* J = 18 */
(PID.TID 0000.0001)                 8.869721460381146E+10,      /* J = 19 */
(PID.TID 0000.0001)                 8.669423991218034E+10,      /* J = 20 */
(PID.TID 0000.0001)                 8.405076334249313E+10,      /* J = 21 */
(PID.TID 0000.0001)                 8.078707194826852E+10,      /* J = 22 */
(PID.TID 0000.0001)                 7.692477203447566E+10,      /* J = 23 */
(PID.TID 0000.0001)                 7.248418794208269E+10,      /* J = 24 */
(PID.TID 0000.0001)                 6.748097638954340E+10,      /* J = 25 */
(PID.TID 0000.0001)                 6.192151981164894E+10,      /* J = 26 */
(PID.TID 0000.0001)                 5.579613053300137E+10,      /* J = 27 */
(PID.TID 0000.0001)                 4.906782896008959E+10,      /* J = 28 */
(PID.TID 0000.0001)                 4.165099566747280E+10,      /* J = 29 */
(PID.TID 0000.0001)                 3.336273018972140E+10,      /* J = 30 */
(PID.TID 0000.0001)                 2.377787005983833E+10,      /* J = 31 */
(PID.TID 0000.0001)                 1.146542574196578E+10       /* J = 32 */
(PID.TID 0000.0001)     ;
(PID.TID 0000.0001) rAs =  /* rAs(:,1,:,1) ( units: m^2 ) */
(PID.TID 0000.0001)                 1.146542574196578E+10,      /* I =  1 */
(PID.TID 0000.0001)                 2.377787005983833E+10,      /* I =  2 */
(PID.TID 0000.0001)                 3.336273018972140E+10,      /* I =  3 */
(PID.TID 0000.0001)      . . .
(PID.TID 0000.0001)                 8.869721460381146E+10,      /* I = 46 */
(PID.TID 0000.0001)                 9.004272888354184E+10,      /* I = 47 */
(PID.TID 0000.0001)                 9.071865929421040E+10,      /* I = 48 */
(PID.TID 0000.0001)                 9.071865929421040E+10,      /* I = 49 */
(PID.TID 0000.0001)                 9.004272888354184E+10,      /* I = 50 */
(PID.TID 0000.0001)                 8.869721460381146E+10,      /* I = 51 */
(PID.TID 0000.0001)      . . .
(PID.TID 0000.0001)                 3.336273018972140E+10,      /* I = 94 */
(PID.TID 0000.0001)                 2.377787005983833E+10,      /* I = 95 */
(PID.TID 0000.0001)                 1.146542574196578E+10,      /* I = 96 */
(PID.TID 0000.0001)                 1.146542574196578E+10,      /* I = 97 */
(PID.TID 0000.0001)                 2.377787005983833E+10,      /* I = 98 */
(PID.TID 0000.0001)                 3.336273018972140E+10,      /* I = 99 */
(PID.TID 0000.0001)      . . .
(PID.TID 0000.0001)                 8.869721460381146E+10,      /* I =142 */
(PID.TID 0000.0001)                 9.004272888354184E+10,      /* I =143 */
(PID.TID 0000.0001)                 9.071865929421040E+10,      /* I =144 */
(PID.TID 0000.0001)                 9.071865929421040E+10,      /* I =145 */
(PID.TID 0000.0001)                 9.004272888354184E+10,      /* I =146 */
(PID.TID 0000.0001)                 8.869721460381146E+10,      /* I =147 */
(PID.TID 0000.0001)      . . .
(PID.TID 0000.0001)                 3.336273018972140E+10,      /* I =190 */
(PID.TID 0000.0001)                 2.377787005983833E+10,      /* I =191 */
(PID.TID 0000.0001)                 1.146542574196578E+10       /* I =192 */
(PID.TID 0000.0001)     ;
(PID.TID 0000.0001) rAs =  /* rAs(1,:,1,:) ( units: m^2 ) */
(PID.TID 0000.0001)                 1.146542574196578E+10,      /* J =  1 */
(PID.TID 0000.0001)                 1.953030837147821E+10,      /* J =  2 */
(PID.TID 0000.0001)                 2.933967873337320E+10,      /* J =  3 */
(PID.TID 0000.0001)                 3.796176706541101E+10,      /* J =  4 */
(PID.TID 0000.0001)                 4.567569462064098E+10,      /* J =  5 */
(PID.TID 0000.0001)                 5.267377164042021E+10,      /* J =  6 */
(PID.TID 0000.0001)                 5.905615583203223E+10,      /* J =  7 */
(PID.TID 0000.0001)                 6.487043381386549E+10,      /* J =  8 */
(PID.TID 0000.0001)                 7.013339442433482E+10,      /* J =  9 */
(PID.TID 0000.0001)                 7.484316069116351E+10,      /* J = 10 */
(PID.TID 0000.0001)                 7.898662143005907E+10,      /* J = 11 */
(PID.TID 0000.0001)                 8.254445101987663E+10,      /* J = 12 */
(PID.TID 0000.0001)                 8.549478360691351E+10,      /* J = 13 */
(PID.TID 0000.0001)                 8.781604517750543E+10,      /* J = 14 */
(PID.TID 0000.0001)                 8.948917519517891E+10,      /* J = 15 */
(PID.TID 0000.0001)                 9.049933392602551E+10,      /* J = 16 */
(PID.TID 0000.0001)                 9.083715262395342E+10,      /* J = 17 */
(PID.TID 0000.0001)                 9.049933392602551E+10,      /* J = 18 */
(PID.TID 0000.0001)                 8.948917519517891E+10,      /* J = 19 */
(PID.TID 0000.0001)                 8.781604517750543E+10,      /* J = 20 */
(PID.TID 0000.0001)                 8.549478360691351E+10,      /* J = 21 */
(PID.TID 0000.0001)                 8.254445101987663E+10,      /* J = 22 */
(PID.TID 0000.0001)                 7.898662143005907E+10,      /* J = 23 */
(PID.TID 0000.0001)                 7.484316069116351E+10,      /* J = 24 */
(PID.TID 0000.0001)                 7.013339442433482E+10,      /* J = 25 */
(PID.TID 0000.0001)                 6.487043381386549E+10,      /* J = 26 */
(PID.TID 0000.0001)                 5.905615583203223E+10,      /* J = 27 */
(PID.TID 0000.0001)                 5.267377164042021E+10,      /* J = 28 */
(PID.TID 0000.0001)                 4.567569462064098E+10,      /* J = 29 */
(PID.TID 0000.0001)                 3.796176706541101E+10,      /* J = 30 */
(PID.TID 0000.0001)                 2.933967873337320E+10,      /* J = 31 */
(PID.TID 0000.0001)                 1.953030837147821E+10       /* J = 32 */
(PID.TID 0000.0001)     ;
(PID.TID 0000.0001) globalArea = /* Integrated horizontal Area (m^2) */
(PID.TID 0000.0001)                 5.098642104278459E+14
(PID.TID 0000.0001)     ;
(PID.TID 0000.0001) // =======================================================
(PID.TID 0000.0001) // End of Model config. summary
(PID.TID 0000.0001) // =======================================================
(PID.TID 0000.0001) 
(PID.TID 0000.0001) == Packages configuration : Check & print summary ==
(PID.TID 0000.0001) 
(PID.TID 0000.0001) GAD_CHECK: #define ALLOW_GENERIC_ADVDIFF
(PID.TID 0000.0001) // =======================================================
(PID.TID 0000.0001) // CONFIG_CHECK : Normal End
(PID.TID 0000.0001) // =======================================================
(PID.TID 0000.0001) 
(PID.TID 0000.0001)  MDS_READ_FIELD: opening global file: U.input.20Lev
(PID.TID 0000.0001)  MDS_READ_FIELD: opening global file: V.input.20Lev
(PID.TID 0000.0001)  MDS_READ_FIELD: opening global file: T.input.20Lev
(PID.TID 0000.0001)  MDS_READ_FIELD: opening global file: RH.input.20Lev
(PID.TID 0000.0001) // =======================================================
(PID.TID 0000.0001) // Field Initial Salinity at iteration          1
(PID.TID 0000.0001) // CMIN =          6.688321003390099E-04
(PID.TID 0000.0001) // CMAX =          3.009632860529917E-02
(PID.TID 0000.0001) // CINT =          1.089907277961487E-03
(PID.TID 0000.0001) // SYMBOLS (CMIN->CMAX): -abcdefghijklmnopqrstuvwxyz+
(PID.TID 0000.0001) //                  0.0: .
(PID.TID 0000.0001) // RANGE I (Lo:Hi:Step):(     1:   192:     1)
(PID.TID 0000.0001) // RANGE J (Lo:Hi:Step):(    32:     1:    -1)
(PID.TID 0000.0001) // RANGE K (Lo:Hi:Step):(   1:   1:   1)
(PID.TID 0000.0001) // =======================================================
(PID.TID 0000.0001) K =   1
(PID.TID 0000.0001)                I=10      I=20      I=30      I=40      I=50      I=60      I=70      I=80      I=90      I=100     I=110     I=120     I=130     I=140     I=150     I=160     I=170     I=180     I=190
(PID.TID 0000.0001) |--J--|123456789|123456789|123456789|123456789|123456789|123456789|123456789|123456789|123456789|123456789|123456789|123456789|123456789|123456789|123456789|123456789|123456789|123456789|123456789|12
(PID.TID 0000.0001)     32 eeeeeeeedddddddddcccccdddddddccdddddcccbbbbcccccbbbbbbbbbccdddeeddddddddddccccccccbbbbccccddeeeeffffghijklnqtwxyxwuspnmlkjihfffeeefffghjjkmortwxxwvtrpnmkhgffffeeedddddddcccccccccccccdddddddddd
(PID.TID 0000.0001)     31 eeeeeeeeeedddeeddcccccdddeeeddccddddcccccbddcccbbbbbbbbcbcdeeeeedddddddcccccccccccbbbcccccddedeefffggghjklnpsvwxxwurpnmlkjihgfffeeffgghijkloqtwxyxvsqpnlkjhgfffeedddddddcccccccccccccccccccddddd
(PID.TID 0000.0001)     30 fffeeeeeeeeeeefedddccdddeeeeeddccdddcccccceeecceeeddccccbcdeeeeeddddccccccbbbbcccbbbbbccccdddddeefgghhijkmnpsuwxxvtrpomlkjihggffeeffgghijkmnqtxyyxvtqnlkkkjhgffeedddddcccccccccccccccccccccccddd
(PID.TID 0000.0001)     29 fffffffffeefffeeeedccdeeeeefeedcccddcccddddgggfeeeeedccdcdeeffffdddcccbbbbbbbbcccbbbbbbccccdddddefghhiijkmoprtvwwvtrponmlkihhgffeefgghhijkmnqtxzyxvtqnlkjjjigfeeeddddccccbbbbbbbbbbbbcccccccccdd
(PID.TID 0000.0001)     28 gggggggfffggggfeedcccddddddffedccccddddddefeggfffffeeddddeffggggdddccbbbbbbbbbbbbbbbbbbcccccccddefghiijkkmoqstvwwvtrqonmlkjihggfeffghhiijkmorvyzywusqnlkjjihgfeddddcccccccbcbbbbbbbbbbcccccccccd
(PID.TID 0000.0001)     27 hhhhhhggghggfeedcccddddddddefeddccceeeddeffgfggggggfedfffgghhhhhdddcccbbbbbbbbbbbbbbbbbcccccccddefgghijklmoqsuvwvvtrqonmlkjihgfeefghhiijklmoswzzywusqnlkjihhgfdddddccccccbbbbbbbbbbbbbbccccccccd
(PID.TID 0000.0001)     26 iiihhhhiihgfedcccdddcddcccdeedeedcdffffdeffghgiiiiggfegghhiiijiiddddccbbbbbbbbbbbbbbbbbccccccccdefgghikllmoqsuwwvvtsqpnmlkjhgffeefghhijjkkmorw++ywuspnmlkihgfeddcccccccbbbbbbbbbbbbbbbbccccccccd
(PID.TID 0000.0001)     25 jjiiiiiiihfeedcccddddddccccddeeddcdefggggghhiijjjjhhgihhijkkkkjkedddccbbbbbbbbbbbbbbabbbbccccccdeffghijklmoqsuwwwvusqpnmljihgffeegghhiijklmorws+ywurqqlligigeddccccccbbbbbbbbbbbbbbbbbbbbbcccccd
(PID.TID 0000.0001)     24 jjjjjjjihgfeddcccddddeecccddeffedcdefghhiijjkllkkkiihkjjlmmmmllmddddccbbbbbbabaaabbaabbbbbccccccdeffghijklnqsuvwwvutrpnmkjhhgfffefghiiijklmorvwxwvtsoqjhgggeddccccccbbbbbbbbbbbbbbbbbbbbbbbccccd
(PID.TID 0000.0001)     23 lkkkkkjihgfedddddeffedddddefhiiffeefhiijjjklmmmmllnnmmlmnonnnnnodcccccbbbaaaaaaaaabaabbbbbbbccccdeefggijklnpruvwwvvtrpnlkjhhgfffefghhiijklnonqywwuutmkjgeggfeedcbcccbbbbbbbbaaa-aaaaaaabbbbccccd
(PID.TID 0000.0001)     22 mmmmllkjhgggfffffghgfefgggghiikkhgiijkklllnoonnnmmmnnoooppppppqqcccccbbbbaaaaaaaaabaaabbabbbccccddeffghiklnoqtvwwwvtrpnlkjhhgfeedefghhijjlmosrstwvuokkgeeeddeeddccbbbbbbbbbaaaaaaa--aaabbbbccccd
(PID.TID 0000.0001)     21 ooonnmlkjiijjjjjjkkjiijkkkklmmklmlklmnnnoopqqqppponooprrrrqqqrssdcccbbbbbaaaaaaaaaaaaabbbbbbbcccddeefghiklnoqsuwwwvtrpnmkjhhgfeddeefghhijkmoptyutsqnjggffffeeeeedccccbbbbbaaaaaaaaa---aabbbbcccc
(PID.TID 0000.0001)     20 rrrqpoonlllnoonnnoppnmmooooqqqompoppppqqqrstssssrqqqqqrsssssstttdccbbbbbba-aaaaaaaaaaabbbbbbccccddddefgiklnoqsuvwwvtrpnmkihgfeddddeeghhiikloqstwzrskihhggfffeeddddccbbbbbaaaaaaaaaaaaaaabbbbbccc
(PID.TID 0000.0001)     19 ttttsrqqppppssrqqrsutsrssrstssqtrrrrsssstuuuuutttssttttuuuuuuuuudcbbbbbbbaaaaaaaaaaaaababbbccccccdddeefhjlnoqruvwwvtromkjhgfedddddeffggijkmorsssspnkjjihhgggfeeddccbbbbbaaaaaaaaaaaaaaaaabbbbbcc
(PID.TID 0000.0001)     18 vvvuutttttttuutttstwwvvvvwxxtswutttuuuuvvvvvuuutttvwvvvvxxwvvvvvcccbbbbbbaaaaaaaaaaaaaabbbbccccccdddeefhjlmoprtvwwvtqnkjigfeddcccddeeghijlnppstsqpmlkjiihhhgfeeddccbbbbbbaaaaaaaaaaaa-aaabbbbbcc
(PID.TID 0000.0001)     17 wxxwwvvvvvvvvvvvvuvxyyxxy+uuutwvvuvvwwwwwvvuuuuuuuuxxwvy+ywvvvvvdccbbbbbbbbaaaaaaaaaaaabbbbbccccccddeefhjlmopruvvvusomkjhgfeddccccddeghiklonqstsrpnllkjiihhgfeeddcbbbbbbaaaaaaaaaaaaaa-aabbbbbcc
(PID.TID 0000.0001)     16 wxxxxwwwvvvvuuuuuuuxyyyyzvvvvuwwvvwwwxwwvvuuuuuuuvuvxwvxyxwvvuvwdccbbbbbbbbaaaaaaaaaaaaaaabbbcccccddefghjlmopruvvvtromkihgfeddcccccddegijmoorstsrqomlkjiihhgfeddcccbbbbbaaaaaaa-aaaaaaaaabbbbbcc
(PID.TID 0000.0001)     15 wxwwwwwwvvuttsrrrrstwxxxxtttttwvvvvvwwwvuuuttttttuuuuvvvvvvvuuutcccbbbbbbbbaaaaaaaaaaaaaaabbbbcccdddefgijlmoprtvvvtqomkihgfedddccccddegikmlorsttsronlkjjiihgfeddcccbbbbbaaaaaaaa--aaaa-aabbbbbbc
(PID.TID 0000.0001)     14 vwwwvuvvutsrqpooopppsvvvvqqqrxvtttuuuvuttttttsssrrsstsssstttttttbccbbbbbaabaaaaaaaaaaaaababbbbbccdddfghiklnoprtvvusqnljihgfeedddcccdeefikjlorsttsrpnmkjjjihgfedddccbbbbbaaaaaaaa-aaaaa-aabbbbbbc
(PID.TID 0000.0001)     13 tuuusssssrqponmmmmmmoooooooooussrsssttsssssssrrqqpqqqqpppqrrrrrrbccbbbbaaabaaaaaaaaaaaaaabbbbbcccddefghiklnoqrtvvuspnljihggeedddbbcceffhjkmprttttsqomlkkkihgfeddcccbbbbbaaaaaaaaaaaaaaaabbbbbbcc
(PID.TID 0000.0001)     12 rssqpppppponmmllkkjkommmmmmmsrqqqqqqrrrqqqqqqqppoooooonnnnopppppcccbbbbbbabbaaaaaaaaaaaabbbbbbcccdeffghjklnoqstvvurpmljihggfeeddbccddeghjknqstuutsqomllkkjhffeddccbbbbbbaaaaaaaaaaaaaaaabbbbbccc
(PID.TID 0000.0001)     11 pppnnnnnnnnmlllkjjihkkkkkkkkponnnppoppppooooonnnnmmmllllllllmmmmccccbbbbbbbbaaaaaaaaaabbbbbbbbccdefgghijlmnoqsuvvuromljjhhgfeeedbbcdefgjiknqsuuuutrpnmmlljhfeeddcccbbbbbbaaaaaaaaaaaaaabbbbbbccc
(PID.TID 0000.0001)     10 nnmlkklmmmmlkkkjjjiggiimliinmlklnonnnnoonnmmmllllllkkkjjjijjklkkcdccbbbbbbbaaaaaaaaaabbbabbbbccddefgghiklmnprsuvvuromlkjihgfeeeecccdehghiknqtuvvutrponnmkihfedddcccbbbbbbbaaaaaaaaaaaaabbbbbbccc
(PID.TID 0000.0001)      9 lkjiiijjkkkkkjjjjiigfgggjhhkkiijmmlllmmnmmlllkkkkkjjiiihhhghiiiiccccbbbbbbbbbaaaaaaaaaabbbbbbccddefghijklnoprsuvvuromlkjihgfeeeeccceegghiknrtvvvvusqponmkihfeeddccbbbbbbbbbbbbbbabaabbbbbbbbccdd
(PID.TID 0000.0001)      8 jhhhhgghijjkjjiiiiihfgggggkjihhhkjjjkkllllkkkkjjjihhhhhgfgggghhhdcccbbbbbbbbbbaaaaaaaaabbbbbccddeefghjjklnoqrtuvvuronmkjjhgfeeeeddddefghiknruvwwwutrponmkihfeeddcccbbbbbbbbbbbbbbbbbbbbbcccccddd
(PID.TID 0000.0001)      7 hgggggffgghiiiiiiihgggfgggghhhhhiiiiijjkkkjjjihihhggffggfffffgggdccccbbbbbbbbbbbaaaabbbbbbbbccdeeffghjklmnoqstuvvurpnmlkjhhgfffeddeefghhjloruvxxwvtsqpnmkigffeddccccbbbbbbbbbbbbbbbbbbbbcccccddd
(PID.TID 0000.0001)      6 gggffffffffghhhhhhhhffhfggihhhhhhhhhhhhijjihhhghhggffeeffeeeefffdccdcbbbbbbbbbbbbbbbbbbbbbbbccddefgghjkmnoprstvvvuspnmlkiihgffffdeefghiijlosuwxyxvusqpomkihgffeddccccccbbcccbbbbbbbccccccccccdde
(PID.TID 0000.0001)      5 fffffeeeeeeegghhhghhgfefffgfggggggghggghhhgggggggggfeeeeeeeeeeeedccdcbbbbbbbbbbbbbbbbbbbbbbbcccdefgghjkmnoprstvwvutqomlkihgfefffeeffghijkmosuwyyxwusrqomjihgffeeddcccccccccccbbbbcccccccccccddde
(PID.TID 0000.0001)      4 fffeeeeeedddeffffffgffeeeefffgfffffggfffgffffffeffffeedeeeeeeeeeddddcbbbbbbbbbbcbcbbbbbbbbbbccdeefgghikmnpqrtuvvvvxspnljihgfeeeeeefghiijlmpsvwyyywutrpnljihgfeeeedddddcccccccccbbcccccccccccddde
(PID.TID 0000.0001)      3 eeeeedddddddeeeeeeeeffeeeefffffffffffffffeeeeeeddeeeedddeeeeeeeedddcbbbbbbbbbccccccbbbbbbbbbcddeeefggiklnprstuvvvyrspnkihgfeeeeeeeeghijjlnpsuwyzyxvtrpmljihgffeeeeedddddddddccccbcccccddddcddddd
(PID.TID 0000.0001)      2 eeeeedddddccdddddddeeeeeeeeeeeeeeeeeeeeeeeeeddddcdddddddeeeeeeeedddcbbbbbbbbccccbbbbbbbbbbccdddeeeffghjlnoqstuvvvysrpmkigffeeeeeeeeghiijkmpsuwyzyxvsqomkjihgfffeeeeedddddedddccccccccdddddddddde
(PID.TID 0000.0001)      1 eeeeddeeddcccddddcdddddddddeeeeddddddddedddddcccccccccdddeeeeeeddddcbbbbbbbbccdcbbbbbbbbbbbdddeeeeefghikmoqstuvvvvtrpnjihgfeeeeeeeffghijkloruwyyywuspnmljihgfffeeeeeeddeeeeddccccccdddeeeeeeeeed
(PID.TID 0000.0001) // =======================================================
(PID.TID 0000.0001) // END OF FIELD                                          =
(PID.TID 0000.0001) // =======================================================
(PID.TID 0000.0001) 
(PID.TID 0000.0001) Start initial hydrostatic pressure computation
(PID.TID 0000.0001) Pressure is predetermined for buoyancyRelation ATMOSPHERIC
(PID.TID 0000.0001) 
(PID.TID 0000.0001)  write diagnostics summary to file ioUnit:      6
Iter.Nb:         0 ; Time(s):  0.0000000000000E+00
------------------------------------------------------------------------
2D/3D diagnostics: Number of lists:     4
------------------------------------------------------------------------
listId=    1 ; file name: SHfields
 nFlds, nActive,       freq     &     phase        , nLev               
   27  |   27  |         0.060000         0.000000 |   1
 levels:   1
 diag# | name   |   ipt  |  iMate | kLev|   count |   mate.C|           
   214 |RADSWT  |      1 |      0 |   1 |       0 |
   237 |OSR     |      2 |      0 |   1 |       0 |
   203 |OLR     |      3 |      0 |   1 |       0 |
   376 |PLALBEDO|      4 |      0 |   1 |       0 |
   267 |CLDFRC  |      5 |      0 |   1 |       0 |
   187 |PREACC  |      6 |      0 |   1 |       0 |
   188 |PRECON  |      7 |      0 |   1 |       0 |
   218 |EVAP    |      8 |      0 |   1 |       0 |
   171 |RADSWG  |      9 |      0 |   1 |       0 |
   347 |ALBNIRDF|     10 |      0 |   1 |       0 |
   345 |ALBVISDF|     11 |      0 |   1 |       0 |
   212 |LWGDOWN |     12 |      0 |   1 |       0 |
   202 |LWGUP   |     13 |      0 |   1 |       0 |
   166 |EFLUX   |     14 |      0 |   1 |       0 |
   165 |HFLUX   |     15 |      0 |   1 |       0 |
   271 |T2M     |     16 |      0 |   1 |       0 |
   272 |Q2M     |     17 |      0 |   1 |       0 |
   167 |UFLUX   |     18 |     19 |   1 |       0 |       0 |
   168 |VFLUX   |     19 |     18 |   1 |       0 |       0 |
   273 |U10M    |     20 |     21 |   1 |       0 |       0 |
   274 |V10M    |     21 |     20 |   1 |       0 |       0 |
   245 |PS      |     22 |      0 |   1 |       0 |
   238 |OSRCLR  |     23 |      0 |   1 |       0 |
   204 |OLRCLR  |     24 |      0 |   1 |       0 |
   248 |SWGCLR  |     25 |      0 |   1 |       0 |
   205 |LWGCLR  |     26 |      0 |   1 |       0 |
    88 |RSURF   |     27 |      0 |   1 |       0 |
------------------------------------------------------------------------
listId=    2 ; file name: MLfields
 nFlds, nActive,       freq     &     phase        , nLev               
    8  |    8  |        -0.060000         0.030000 |  17
 interp: 1.000E+05 9.250E+04 8.500E+04 7.000E+04 6.000E+04 5.000E+04 4.000E+04 3.000E+04 2.500E+04 2.000E+04
 interp: 1.500E+04 1.000E+04 7.000E+03 5.000E+03 3.000E+03 2.000E+03 1.000E+03
 diag# | name   |   ipt  |  iMate | kLev|   count |   mate.C|           
    29 |UVEL    |     28 |     48 |  20 |       0 |       0 |
    30 |VVEL    |     48 |     28 |  20 |       0 |       0 |
    65 |PHIHYD  |     68 |      0 |  20 |       0 |
    31 |WVEL    |     88 |      0 |  20 |       0 |
    27 |SALT    |    108 |      0 |  20 |       0 |
    28 |RELHUM  |    128 |      0 |  20 |       0 |
    87 |RCENTER |    148 |      0 |  20 |       0 |
    26 |THETA   |    168 |      0 |  20 |       0 |
------------------------------------------------------------------------
listId=    3 ; file name: MFfields
 nFlds, nActive,       freq     &     phase        , nLev               
   17  |   17  |        -0.060000         0.030000 |  17
 interp: 1.000E+05 9.250E+04 8.500E+04 7.000E+04 6.000E+04 5.000E+04 4.000E+04 3.000E+04 2.500E+04 2.000E+04
 interp: 1.500E+04 1.000E+04 7.000E+03 5.000E+03 3.000E+03 2.000E+03 1.000E+03
 diag# | name   |   ipt  |  iMate | kLev|   count |   mate.C|           
    34 |UVELSQ  |    188 |    208 |  20 |       0 |       0 |
    35 |VVELSQ  |    208 |    188 |  20 |       0 |       0 |
    32 |THETASQ |    228 |      0 |  20 |       0 |
    36 |WVELSQ  |    248 |      0 |  20 |       0 |
    66 |PHIHYDSQ|    268 |      0 |  20 |       0 |
    33 |SALTSQ  |    288 |      0 |  20 |       0 |
    39 |UV_VEL_C|    308 |    308 |  20 |       0 |       0 |
    41 |WU_VEL  |    328 |      0 |  20 |       0 |
    42 |WV_VEL  |    348 |      0 |  20 |       0 |
    53 |VVELTH  |    368 |    468 |  20 |       0 |       0 |
    54 |WVELTH  |    388 |      0 |  20 |       0 |
    56 |VVELSLT |    408 |    448 |  20 |       0 |       0 |
    57 |WVELSLT |    428 |      0 |  20 |       0 |
    55 |UVELSLT |    448 |    408 |  20 |       0 |       0 |
    52 |UVELTH  |    468 |    368 |  20 |       0 |       0 |
    58 |UVELPHI |    488 |    508 |  20 |       0 |       0 |
    59 |VVELPHI |    508 |    488 |  20 |       0 |       0 |
------------------------------------------------------------------------
listId=    4 ; file name: snapshot_ps
 nFlds, nActive,       freq     &     phase        , nLev               
    1  |    1  |        -0.060000         0.030000 |   1
 levels:   1
 diag# | name   |   ipt  |  iMate | kLev|   count |   mate.C|           
    88 |RSURF   |    528 |      0 |   1 |       0 |
------------------------------------------------------------------------
Global & Regional Statistics diagnostics: Number of lists:     1
------------------------------------------------------------------------
listId=   1 ; file name: GTfields
 nFlds, nActive,       freq     &     phase        |                    
   26  |   26  |         1.000000         0.000000 |
 Regions:   0
 diag# | name   |   ipt  |  iMate |    Volume   |   mate-Vol. |         
   214 |RADSWT  |      1 |      0 | 0.00000E+00 |
   237 |OSR     |      2 |      0 | 0.00000E+00 |
   203 |OLR     |      3 |      0 | 0.00000E+00 |
   376 |PLALBEDO|      4 |      0 | 0.00000E+00 |
   267 |CLDFRC  |      5 |      0 | 0.00000E+00 |
   187 |PREACC  |      6 |      0 | 0.00000E+00 |
   188 |PRECON  |      7 |      0 | 0.00000E+00 |
   218 |EVAP    |      8 |      0 | 0.00000E+00 |
   171 |RADSWG  |      9 |      0 | 0.00000E+00 |
   347 |ALBNIRDF|     10 |      0 | 0.00000E+00 |
   345 |ALBVISDF|     11 |      0 | 0.00000E+00 |
   212 |LWGDOWN |     12 |      0 | 0.00000E+00 |
   202 |LWGUP   |     13 |      0 | 0.00000E+00 |
   166 |EFLUX   |     14 |      0 | 0.00000E+00 |
   165 |HFLUX   |     15 |      0 | 0.00000E+00 |
   271 |T2M     |     16 |      0 | 0.00000E+00 |
   272 |Q2M     |     17 |      0 | 0.00000E+00 |
   167 |UFLUX   |     18 |      0 | 0.00000E+00 |
   168 |VFLUX   |     19 |      0 | 0.00000E+00 |
   273 |U10M    |     20 |      0 | 0.00000E+00 |
   274 |V10M    |     21 |      0 | 0.00000E+00 |
   245 |PS      |     22 |      0 | 0.00000E+00 |
   238 |OSRCLR  |     23 |      0 | 0.00000E+00 |
   204 |OLRCLR  |     24 |      0 | 0.00000E+00 |
   248 |SWGCLR  |     25 |      0 | 0.00000E+00 |
   205 |LWGCLR  |     26 |      0 | 0.00000E+00 |
------------------------------------------------------------------------
  In fizhi_init_vars: Beginning of New Experiment 
  Cold Start: Zero out Turb second moments 
  Initialize fizhi arrays that will be on pickup 
  Cold Start: Zero out Turb second moments 
  Initialize fizhi arrays that will be on pickup 
  Cold Start: Zero out Turb second moments 
  Initialize fizhi arrays that will be on pickup 
  Cold Start: Zero out Turb second moments 
  Initialize fizhi arrays that will be on pickup 
  Cold Start: Zero out Turb second moments 
  Initialize fizhi arrays that will be on pickup 
  Cold Start: Zero out Turb second moments 
  Initialize fizhi arrays that will be on pickup 
(PID.TID 0000.0001) // =======================================================
(PID.TID 0000.0001) // Model current state
(PID.TID 0000.0001) // =======================================================
(PID.TID 0000.0001) 
(PID.TID 0000.0001) // =======================================================
(PID.TID 0000.0001) // Begin MONITOR dynamic field statistics
(PID.TID 0000.0001) // =======================================================
(PID.TID 0000.0001) %MON time_tsnumber                =                     0
(PID.TID 0000.0001) %MON time_secondsf                =   0.0000000000000E+00
(PID.TID 0000.0001) %MON dynstat_eta_max              =   0.0000000000000E+00
(PID.TID 0000.0001) %MON dynstat_eta_min              =   0.0000000000000E+00
(PID.TID 0000.0001) %MON dynstat_eta_mean             =   0.0000000000000E+00
(PID.TID 0000.0001) %MON dynstat_eta_sd               =   0.0000000000000E+00
(PID.TID 0000.0001) %MON dynstat_eta_del2             =   0.0000000000000E+00
(PID.TID 0000.0001) %MON dynstat_uvel_max             =   4.1689124714060E+01
(PID.TID 0000.0001) %MON dynstat_uvel_min             =  -3.6855012364959E+01
(PID.TID 0000.0001) %MON dynstat_uvel_mean            =   1.7037315637278E+00
(PID.TID 0000.0001) %MON dynstat_uvel_sd              =   7.8762494662000E+00
(PID.TID 0000.0001) %MON dynstat_uvel_del2            =   4.6170039866525E-03
(PID.TID 0000.0001) %MON dynstat_vvel_max             =   3.8279724931338E+01
(PID.TID 0000.0001) %MON dynstat_vvel_min             =  -3.3449826571863E+01
(PID.TID 0000.0001) %MON dynstat_vvel_mean            =   1.6728858593484E+00
(PID.TID 0000.0001) %MON dynstat_vvel_sd              =   7.8521609366093E+00
(PID.TID 0000.0001) %MON dynstat_vvel_del2            =   4.7321651039721E-03
(PID.TID 0000.0001) %MON dynstat_wvel_max             =   2.0651102168184E-01
(PID.TID 0000.0001) %MON dynstat_wvel_min             =  -1.4850774831547E-01
(PID.TID 0000.0001) %MON dynstat_wvel_mean            =   1.5920826516130E-18
(PID.TID 0000.0001) %MON dynstat_wvel_sd              =   2.6334297146946E-02
(PID.TID 0000.0001) %MON dynstat_wvel_del2            =   1.0538214467621E-04
(PID.TID 0000.0001) %MON dynstat_theta_max            =   4.8585539276299E+02
(PID.TID 0000.0001) %MON dynstat_theta_min            =   2.6911078580507E+02
(PID.TID 0000.0001) %MON dynstat_theta_mean           =   3.2503096578545E+02
(PID.TID 0000.0001) %MON dynstat_theta_sd             =   4.7714841923137E+01
(PID.TID 0000.0001) %MON dynstat_theta_del2           =   1.3266932954941E-03
(PID.TID 0000.0001) %MON dynstat_salt_max             =   3.0096328605299E-02
(PID.TID 0000.0001) %MON dynstat_salt_min             =   0.0000000000000E+00
(PID.TID 0000.0001) %MON dynstat_salt_mean            =   2.6642499910156E-03
(PID.TID 0000.0001) %MON dynstat_salt_sd              =   4.4400329333276E-03
(PID.TID 0000.0001) %MON dynstat_salt_del2            =   1.2412774779216E-06
(PID.TID 0000.0001) %MON advcfl_uvel_max              =   3.1499896007934E-02
(PID.TID 0000.0001) %MON advcfl_vvel_max              =   3.5319712134133E-02
(PID.TID 0000.0001) %MON advcfl_wvel_max              =   4.9033087854809E-03
(PID.TID 0000.0001) %MON advcfl_W_hf_max              =   4.9033087854809E-03
(PID.TID 0000.0001) %MON pe_b_mean                    =   0.0000000000000E+00
(PID.TID 0000.0001) %MON ke_max                       =   8.6575910092947E+02
(PID.TID 0000.0001) %MON ke_mean                      =   6.4696492683937E+01
(PID.TID 0000.0001) %MON ke_vol                       =   5.1537074390047E+19
(PID.TID 0000.0001) %MON vort_r_min                   =  -4.8334073392882E-05
(PID.TID 0000.0001) %MON vort_r_max                   =   5.4390382265555E-05
(PID.TID 0000.0001) %MON vort_a_mean                  =   1.3580915090222E-19
(PID.TID 0000.0001) %MON vort_a_sd                    =   8.5822836919601E-05
(PID.TID 0000.0001) %MON vort_p_mean                  =   1.3580915090222E-19
(PID.TID 0000.0001) %MON vort_p_sd                    =   8.5822836919601E-05
(PID.TID 0000.0001) %MON surfExpan_theta_mean         =   3.8975999242293E-17
(PID.TID 0000.0001) %MON surfExpan_salt_mean          =   1.5437467709100E-21
(PID.TID 0000.0001) %MON surfExpan_Heat_mean          =   3.9724034373426E-15
(PID.TID 0000.0001) %MON En_Budget_T2PE_mean          =  -2.2904633417966E-01
(PID.TID 0000.0001) // =======================================================
(PID.TID 0000.0001) // End MONITOR dynamic field statistics
(PID.TID 0000.0001) // =======================================================

 Low-Level Clouds are Grouped between levels:           30 and           19
 Mid-Level Clouds are Grouped between levels:           18 and           13


 Warning!
 Turbulent Kinetic Energy has not been initialized.
 Cold-Start will use Level 2.0 Turbulence.


 Top Level Allowed for Convection :            5
           Highest Sub-Cloud Level:           22
           Lowest  Sub-Cloud Level:           26
     Total Number of Random Clouds:           13

 Creating Rand Numb Array in RNDCLOUD, iseed=           0
 IRAS:            1  IRAS0:            0 indx:            0
 Current Date     20040321 Current Time          200
(PID.TID 0000.0001) SOLVE_FOR_PRESSURE: putPmEinXvector =    F
 cg2d: Sum(rhs),rhsMax =   1.09139364212751E-11  3.41494610617228E+02
(PID.TID 0000.0001)                    cg2d_init_res =    4.81516248542290E+03
(PID.TID 0000.0001)                       cg2d_iters =     6
(PID.TID 0000.0001)                         cg2d_res =    9.50688763485652E-11
(PID.TID 0000.0001) // =======================================================
(PID.TID 0000.0001) // Begin MONITOR dynamic field statistics
(PID.TID 0000.0001) // =======================================================
(PID.TID 0000.0001) %MON time_tsnumber                =                     1
(PID.TID 0000.0001) %MON time_secondsf                =   1.2000000000000E+02
(PID.TID 0000.0001) %MON dynstat_eta_max              =   1.1335694243200E+01
(PID.TID 0000.0001) %MON dynstat_eta_min              =  -6.8881281664859E+00
(PID.TID 0000.0001) %MON dynstat_eta_mean             =   4.3463856389035E-17
(PID.TID 0000.0001) %MON dynstat_eta_sd               =   1.0803202511142E+00
(PID.TID 0000.0001) %MON dynstat_eta_del2             =   2.3463771893809E-02
(PID.TID 0000.0001) %MON dynstat_uvel_max             =   4.1671168667721E+01
(PID.TID 0000.0001) %MON dynstat_uvel_min             =  -3.6890544564903E+01
(PID.TID 0000.0001) %MON dynstat_uvel_mean            =   1.7031695895167E+00
(PID.TID 0000.0001) %MON dynstat_uvel_sd              =   7.8744904478543E+00
(PID.TID 0000.0001) %MON dynstat_uvel_del2            =   4.6153736061229E-03
(PID.TID 0000.0001) %MON dynstat_vvel_max             =   3.8266982510448E+01
(PID.TID 0000.0001) %MON dynstat_vvel_min             =  -3.3384654650142E+01
(PID.TID 0000.0001) %MON dynstat_vvel_mean            =   1.6734022725030E+00
(PID.TID 0000.0001) %MON dynstat_vvel_sd              =   7.8532911577221E+00
(PID.TID 0000.0001) %MON dynstat_vvel_del2            =   4.7324690864522E-03
(PID.TID 0000.0001) %MON dynstat_wvel_max             =   2.0525897446055E-01
(PID.TID 0000.0001) %MON dynstat_wvel_min             =  -1.6045751110391E-01
(PID.TID 0000.0001) %MON dynstat_wvel_mean            =  -9.5524959096780E-19
(PID.TID 0000.0001) %MON dynstat_wvel_sd              =   2.6352800457149E-02
(PID.TID 0000.0001) %MON dynstat_wvel_del2            =   1.0355595879414E-04
(PID.TID 0000.0001) %MON dynstat_theta_max            =   4.8595561732146E+02
(PID.TID 0000.0001) %MON dynstat_theta_min            =   2.6911257170683E+02
(PID.TID 0000.0001) %MON dynstat_theta_mean           =   3.2504145781136E+02
(PID.TID 0000.0001) %MON dynstat_theta_sd             =   4.7752604761154E+01
(PID.TID 0000.0001) %MON dynstat_theta_del2           =   1.3264519883569E-03
(PID.TID 0000.0001) %MON dynstat_salt_max             =   2.9557606786642E-02
(PID.TID 0000.0001) %MON dynstat_salt_min             =  -1.3790984241921E-10
(PID.TID 0000.0001) %MON dynstat_salt_mean            =   2.6643102836824E-03
(PID.TID 0000.0001) %MON dynstat_salt_sd              =   4.4270063324288E-03
(PID.TID 0000.0001) %MON dynstat_salt_del2            =   1.2449311463494E-06
(PID.TID 0000.0001) %MON advcfl_uvel_max              =   3.1565067054170E-02
(PID.TID 0000.0001) %MON advcfl_vvel_max              =   3.5318811881498E-02
(PID.TID 0000.0001) %MON advcfl_wvel_max              =   4.8735807153276E-03
(PID.TID 0000.0001) %MON advcfl_W_hf_max              =   4.8735807153276E-03
(PID.TID 0000.0001) %MON pe_b_mean                    =   4.7001227217849E-06
(PID.TID 0000.0001) %MON ke_max                       =   8.6477641190713E+02
(PID.TID 0000.0001) %MON ke_mean                      =   6.4691421818787E+01
(PID.TID 0000.0001) %MON ke_vol                       =   5.1537074390047E+19
(PID.TID 0000.0001) %MON vort_r_min                   =  -4.8331686059243E-05
(PID.TID 0000.0001) %MON vort_r_max                   =   5.4416633322161E-05
(PID.TID 0000.0001) %MON vort_a_mean                  =   1.9643823612643E-19
(PID.TID 0000.0001) %MON vort_a_sd                    =   8.5822702880403E-05
(PID.TID 0000.0001) %MON vort_p_mean                  =   1.9643823612643E-19
(PID.TID 0000.0001) %MON vort_p_sd                    =   8.5822702880403E-05
(PID.TID 0000.0001) %MON surfExpan_theta_mean         =  -1.5115870562791E-03
(PID.TID 0000.0001) %MON surfExpan_salt_mean          =  -1.3487043947975E-06
(PID.TID 0000.0001) %MON surfExpan_Heat_mean          =  -9.5979559325716E-02
(PID.TID 0000.0001) %MON En_Budget_T2PE_mean          =  -2.0955487909738E-01
(PID.TID 0000.0001) // =======================================================
(PID.TID 0000.0001) // End MONITOR dynamic field statistics
(PID.TID 0000.0001) // =======================================================
 Current Date     20040321 Current Time          400
 cg2d: Sum(rhs),rhsMax =  -9.45874489843845E-11  1.00663341234977E+03
(PID.TID 0000.0001)                    cg2d_init_res =    9.48021300116912E+03
(PID.TID 0000.0001)                       cg2d_iters =     6
(PID.TID 0000.0001)                         cg2d_res =    1.81269416885749E-10
(PID.TID 0000.0001) // =======================================================
(PID.TID 0000.0001) // Begin MONITOR dynamic field statistics
(PID.TID 0000.0001) // =======================================================
(PID.TID 0000.0001) %MON time_tsnumber                =                     2
(PID.TID 0000.0001) %MON time_secondsf                =   2.4000000000000E+02
(PID.TID 0000.0001) %MON dynstat_eta_max              =   2.9879512417925E+01
(PID.TID 0000.0001) %MON dynstat_eta_min              =  -2.0289801336508E+01
(PID.TID 0000.0001) %MON dynstat_eta_mean             =   1.4901893619098E-16
(PID.TID 0000.0001) %MON dynstat_eta_sd               =   3.1881416873001E+00
(PID.TID 0000.0001) %MON dynstat_eta_del2             =   6.2877022415094E-02
(PID.TID 0000.0001) %MON dynstat_uvel_max             =   4.1651694988819E+01
(PID.TID 0000.0001) %MON dynstat_uvel_min             =  -3.6923976980952E+01
(PID.TID 0000.0001) %MON dynstat_uvel_mean            =   1.7026170474522E+00
(PID.TID 0000.0001) %MON dynstat_uvel_sd              =   7.8725698630315E+00
(PID.TID 0000.0001) %MON dynstat_uvel_del2            =   4.6140598603154E-03
(PID.TID 0000.0001) %MON dynstat_vvel_max             =   3.8252464712692E+01
(PID.TID 0000.0001) %MON dynstat_vvel_min             =  -3.3316415904875E+01
(PID.TID 0000.0001) %MON dynstat_vvel_mean            =   1.6739288706733E+00
(PID.TID 0000.0001) %MON dynstat_vvel_sd              =   7.8541920961327E+00
(PID.TID 0000.0001) %MON dynstat_vvel_del2            =   4.7331211928137E-03
(PID.TID 0000.0001) %MON dynstat_wvel_max             =   2.0394109759694E-01
(PID.TID 0000.0001) %MON dynstat_wvel_min             =  -1.7237393564207E-01
(PID.TID 0000.0001) %MON dynstat_wvel_mean            =   3.0249570380647E-18
(PID.TID 0000.0001) %MON dynstat_wvel_sd              =   2.6378151929951E-02
(PID.TID 0000.0001) %MON dynstat_wvel_del2            =   1.0240530548369E-04
(PID.TID 0000.0001) %MON dynstat_theta_max            =   4.8605549747649E+02
(PID.TID 0000.0001) %MON dynstat_theta_min            =   2.6911436188662E+02
(PID.TID 0000.0001) %MON dynstat_theta_mean           =   3.2505194319913E+02
(PID.TID 0000.0001) %MON dynstat_theta_sd             =   4.7790428980282E+01
(PID.TID 0000.0001) %MON dynstat_theta_del2           =   1.3272632565794E-03
(PID.TID 0000.0001) %MON dynstat_salt_max             =   2.9371440619559E-02
(PID.TID 0000.0001) %MON dynstat_salt_min             =  -4.3535680565468E-10
(PID.TID 0000.0001) %MON dynstat_salt_mean            =   2.6643716655148E-03
(PID.TID 0000.0001) %MON dynstat_salt_sd              =   4.4155532456752E-03
(PID.TID 0000.0001) %MON dynstat_salt_del2            =   1.2985684018960E-06
(PID.TID 0000.0001) %MON advcfl_uvel_max              =   3.1611163975057E-02
(PID.TID 0000.0001) %MON advcfl_vvel_max              =   3.5314240429699E-02
(PID.TID 0000.0001) %MON advcfl_wvel_max              =   4.8422896144900E-03
(PID.TID 0000.0001) %MON advcfl_W_hf_max              =   4.8422729147552E-03
(PID.TID 0000.0001) %MON pe_b_mean                    =   4.0933548157838E-05
(PID.TID 0000.0001) %MON ke_max                       =   8.6375265957857E+02
(PID.TID 0000.0001) %MON ke_mean                      =   6.4683316203726E+01
(PID.TID 0000.0001) %MON ke_vol                       =   5.1537074390046E+19
(PID.TID 0000.0001) %MON vort_r_min                   =  -4.8326840345258E-05
(PID.TID 0000.0001) %MON vort_r_max                   =   5.4441797749736E-05
(PID.TID 0000.0001) %MON vort_a_mean                  =  -1.2125817044841E-19
(PID.TID 0000.0001) %MON vort_a_sd                    =   8.5822494495167E-05
(PID.TID 0000.0001) %MON vort_p_mean                  =  -1.2125816996778E-19
(PID.TID 0000.0001) %MON vort_p_sd                    =   8.5822537456864E-05
(PID.TID 0000.0001) %MON surfExpan_theta_mean         =   4.3244799334794E-04
(PID.TID 0000.0001) %MON surfExpan_salt_mean          =  -2.7650329019571E-06
(PID.TID 0000.0001) %MON surfExpan_Heat_mean          =   1.5394531186409E-01
(PID.TID 0000.0001) %MON En_Budget_T2PE_mean          =  -1.9030633618726E-01
(PID.TID 0000.0001) // =======================================================
(PID.TID 0000.0001) // End MONITOR dynamic field statistics
(PID.TID 0000.0001) // =======================================================
 Current Date     20040321 Current Time          600
 cg2d: Sum(rhs),rhsMax =   2.91038304567337E-11  1.97850577556965E+03
(PID.TID 0000.0001)                    cg2d_init_res =    1.41156947840944E+04
(PID.TID 0000.0001)                       cg2d_iters =     6
(PID.TID 0000.0001)                         cg2d_res =    2.63132713713987E-10
(PID.TID 0000.0001) // =======================================================
(PID.TID 0000.0001) // Begin MONITOR dynamic field statistics
(PID.TID 0000.0001) // =======================================================
(PID.TID 0000.0001) %MON time_tsnumber                =                     3
(PID.TID 0000.0001) %MON time_secondsf                =   3.6000000000000E+02
(PID.TID 0000.0001) %MON dynstat_eta_max              =   5.0182717175664E+01
(PID.TID 0000.0001) %MON dynstat_eta_min              =  -3.9869781767386E+01
(PID.TID 0000.0001) %MON dynstat_eta_mean             =   5.9607574476391E-16
(PID.TID 0000.0001) %MON dynstat_eta_sd               =   6.3299543127985E+00
(PID.TID 0000.0001) %MON dynstat_eta_del2             =   1.1238241598678E-01
(PID.TID 0000.0001) %MON dynstat_uvel_max             =   4.1632029607332E+01
(PID.TID 0000.0001) %MON dynstat_uvel_min             =  -3.6956133327305E+01
(PID.TID 0000.0001) %MON dynstat_uvel_mean            =   1.7020797300291E+00
(PID.TID 0000.0001) %MON dynstat_uvel_sd              =   7.8706216379503E+00
(PID.TID 0000.0001) %MON dynstat_uvel_del2            =   4.6120678597700E-03
(PID.TID 0000.0001) %MON dynstat_vvel_max             =   3.8236951452418E+01
(PID.TID 0000.0001) %MON dynstat_vvel_min             =  -3.3246796861605E+01
(PID.TID 0000.0001) %MON dynstat_vvel_mean            =   1.6744701174685E+00
(PID.TID 0000.0001) %MON dynstat_vvel_sd              =   7.8549928460865E+00
(PID.TID 0000.0001) %MON dynstat_vvel_del2            =   4.7329205263512E-03
(PID.TID 0000.0001) %MON dynstat_wvel_max             =   2.0255215771579E-01
(PID.TID 0000.0001) %MON dynstat_wvel_min             =  -1.8467983286213E-01
(PID.TID 0000.0001) %MON dynstat_wvel_mean            =  -1.5920826516130E-18
(PID.TID 0000.0001) %MON dynstat_wvel_sd              =   2.6404690749872E-02
(PID.TID 0000.0001) %MON dynstat_wvel_del2            =   1.0183890871045E-04
(PID.TID 0000.0001) %MON dynstat_theta_max            =   4.8615512451274E+02
(PID.TID 0000.0001) %MON dynstat_theta_min            =   2.6911608656692E+02
(PID.TID 0000.0001) %MON dynstat_theta_mean           =   3.2506242274782E+02
(PID.TID 0000.0001) %MON dynstat_theta_sd             =   4.7828279864574E+01
(PID.TID 0000.0001) %MON dynstat_theta_del2           =   1.3262101368492E-03
(PID.TID 0000.0001) %MON dynstat_salt_max             =   2.9229591852932E-02
(PID.TID 0000.0001) %MON dynstat_salt_min             =  -7.9911221965808E-10
(PID.TID 0000.0001) %MON dynstat_salt_mean            =   2.6644324392991E-03
(PID.TID 0000.0001) %MON dynstat_salt_sd              =   4.4052914102584E-03
(PID.TID 0000.0001) %MON dynstat_salt_del2            =   1.3080984621461E-06
(PID.TID 0000.0001) %MON advcfl_uvel_max              =   3.1638227550810E-02
(PID.TID 0000.0001) %MON advcfl_vvel_max              =   3.5305101256559E-02
(PID.TID 0000.0001) %MON advcfl_wvel_max              =   4.8093112239602E-03
(PID.TID 0000.0001) %MON advcfl_W_hf_max              =   4.8092535259203E-03
(PID.TID 0000.0001) %MON pe_b_mean                    =   1.6136350330777E-04
(PID.TID 0000.0001) %MON ke_max                       =   8.6273222972630E+02
(PID.TID 0000.0001) %MON ke_mean                      =   6.4674261584546E+01
(PID.TID 0000.0001) %MON ke_vol                       =   5.1537074390046E+19
(PID.TID 0000.0001) %MON vort_r_min                   =  -4.8320607082333E-05
(PID.TID 0000.0001) %MON vort_r_max                   =   5.4466470765630E-05
(PID.TID 0000.0001) %MON vort_a_mean                  =   7.2754902269047E-20
(PID.TID 0000.0001) %MON vort_a_sd                    =   8.5822205833038E-05
(PID.TID 0000.0001) %MON vort_p_mean                  =   7.2754901348217E-20
(PID.TID 0000.0001) %MON vort_p_sd                    =   8.5822364789820E-05
(PID.TID 0000.0001) %MON surfExpan_theta_mean         =   2.4344706101187E-03
(PID.TID 0000.0001) %MON surfExpan_salt_mean          =  -4.1585746238601E-06
(PID.TID 0000.0001) %MON surfExpan_Heat_mean          =   4.0790223475381E-01
(PID.TID 0000.0001) %MON En_Budget_T2PE_mean          =  -1.7147216227779E-01
(PID.TID 0000.0001) // =======================================================
(PID.TID 0000.0001) // End MONITOR dynamic field statistics
(PID.TID 0000.0001) // =======================================================
 Current Date     20040321 Current Time          800
 cg2d: Sum(rhs),rhsMax =   2.91038304567337E-11  3.23551051435500E+03
(PID.TID 0000.0001)                    cg2d_init_res =    1.85716669332332E+04
(PID.TID 0000.0001)                       cg2d_iters =     6
(PID.TID 0000.0001)                         cg2d_res =    3.37675679726487E-10
(PID.TID 0000.0001) // =======================================================
(PID.TID 0000.0001) // Begin MONITOR dynamic field statistics
(PID.TID 0000.0001) // =======================================================
(PID.TID 0000.0001) %MON time_tsnumber                =                     4
(PID.TID 0000.0001) %MON time_secondsf                =   4.8000000000000E+02
(PID.TID 0000.0001) %MON dynstat_eta_max              =   6.8381584001410E+01
(PID.TID 0000.0001) %MON dynstat_eta_min              =  -6.5199241265084E+01
(PID.TID 0000.0001) %MON dynstat_eta_mean             =   1.9869191492130E-16
(PID.TID 0000.0001) %MON dynstat_eta_sd               =   1.0465887784880E+01
(PID.TID 0000.0001) %MON dynstat_eta_del2             =   1.6780921349775E-01
(PID.TID 0000.0001) %MON dynstat_uvel_max             =   4.1612575950507E+01
(PID.TID 0000.0001) %MON dynstat_uvel_min             =  -3.6987039887908E+01
(PID.TID 0000.0001) %MON dynstat_uvel_mean            =   1.7015578186224E+00
(PID.TID 0000.0001) %MON dynstat_uvel_sd              =   7.8686676905736E+00
(PID.TID 0000.0001) %MON dynstat_uvel_del2            =   4.6100767845211E-03
(PID.TID 0000.0001) %MON dynstat_vvel_max             =   3.8220579507576E+01
(PID.TID 0000.0001) %MON dynstat_vvel_min             =  -3.3176070471788E+01
(PID.TID 0000.0001) %MON dynstat_vvel_mean            =   1.6750244541025E+00
(PID.TID 0000.0001) %MON dynstat_vvel_sd              =   7.8557240735629E+00
(PID.TID 0000.0001) %MON dynstat_vvel_del2            =   4.7326358183669E-03
(PID.TID 0000.0001) %MON dynstat_wvel_max             =   2.0108833039248E-01
(PID.TID 0000.0001) %MON dynstat_wvel_min             =  -1.9757512899936E-01
(PID.TID 0000.0001) %MON dynstat_wvel_mean            =  -3.6617900987099E-18
(PID.TID 0000.0001) %MON dynstat_wvel_sd              =   2.6437012969255E-02
(PID.TID 0000.0001) %MON dynstat_wvel_del2            =   1.0189274984688E-04
(PID.TID 0000.0001) %MON dynstat_theta_max            =   4.8625450339940E+02
(PID.TID 0000.0001) %MON dynstat_theta_min            =   2.6911778502643E+02
(PID.TID 0000.0001) %MON dynstat_theta_mean           =   3.2507290086943E+02
(PID.TID 0000.0001) %MON dynstat_theta_sd             =   4.7866178856355E+01
(PID.TID 0000.0001) %MON dynstat_theta_del2           =   1.3262460174447E-03
(PID.TID 0000.0001) %MON dynstat_salt_max             =   2.9088266079817E-02
(PID.TID 0000.0001) %MON dynstat_salt_min             =  -1.2078690694558E-09
(PID.TID 0000.0001) %MON dynstat_salt_mean            =   2.6644931593644E-03
(PID.TID 0000.0001) %MON dynstat_salt_sd              =   4.3955409030689E-03
(PID.TID 0000.0001) %MON dynstat_salt_del2            =   1.3338880753339E-06
(PID.TID 0000.0001) %MON advcfl_uvel_max              =   3.1650319016023E-02
(PID.TID 0000.0001) %MON advcfl_vvel_max              =   3.5291653144973E-02
(PID.TID 0000.0001) %MON advcfl_wvel_max              =   4.7745547382464E-03
(PID.TID 0000.0001) %MON advcfl_W_hf_max              =   4.7744283677194E-03
(PID.TID 0000.0001) %MON pe_b_mean                    =   4.4111955542979E-04
(PID.TID 0000.0001) %MON ke_max                       =   8.6172966334855E+02
(PID.TID 0000.0001) %MON ke_mean                      =   6.4664668945999E+01
(PID.TID 0000.0001) %MON ke_vol                       =   5.1537074390047E+19
(PID.TID 0000.0001) %MON vort_r_min                   =  -4.8313026359279E-05
(PID.TID 0000.0001) %MON vort_r_max                   =   5.4490657385205E-05
(PID.TID 0000.0001) %MON vort_a_mean                  =   2.4251634089682E-21
(PID.TID 0000.0001) %MON vort_a_sd                    =   8.5821866216650E-05
(PID.TID 0000.0001) %MON vort_p_mean                  =   2.4251633465340E-21
(PID.TID 0000.0001) %MON vort_p_sd                    =   8.5822213371701E-05
(PID.TID 0000.0001) %MON surfExpan_theta_mean         =   4.5047180151158E-03
(PID.TID 0000.0001) %MON surfExpan_salt_mean          =  -5.5235800323491E-06
(PID.TID 0000.0001) %MON surfExpan_Heat_mean          =   6.6674169617506E-01
(PID.TID 0000.0001) %MON En_Budget_T2PE_mean          =  -1.5295685446782E-01
(PID.TID 0000.0001) // =======================================================
(PID.TID 0000.0001) // End MONITOR dynamic field statistics
(PID.TID 0000.0001) // =======================================================
 Current Date     20040321 Current Time         1000
 cg2d: Sum(rhs),rhsMax =  -1.16415321826935E-10  4.75209421422786E+03
(PID.TID 0000.0001)                    cg2d_init_res =    2.28037799066802E+04
(PID.TID 0000.0001)                       cg2d_iters =     6
(PID.TID 0000.0001)                         cg2d_res =    4.04686464580702E-10
(PID.TID 0000.0001) // =======================================================
(PID.TID 0000.0001) // Begin MONITOR dynamic field statistics
(PID.TID 0000.0001) // =======================================================
(PID.TID 0000.0001) %MON time_tsnumber                =                     5
(PID.TID 0000.0001) %MON time_secondsf                =   6.0000000000000E+02
(PID.TID 0000.0001) %MON dynstat_eta_max              =   8.2649640245727E+01
(PID.TID 0000.0001) %MON dynstat_eta_min              =  -9.5770775528138E+01
(PID.TID 0000.0001) %MON dynstat_eta_mean             =  -7.9476765968521E-16
(PID.TID 0000.0001) %MON dynstat_eta_sd               =   1.5545757229308E+01
(PID.TID 0000.0001) %MON dynstat_eta_del2             =   2.2732797586708E-01
(PID.TID 0000.0001) %MON dynstat_uvel_max             =   4.1593695331240E+01
(PID.TID 0000.0001) %MON dynstat_uvel_min             =  -3.7016703195741E+01
(PID.TID 0000.0001) %MON dynstat_uvel_mean            =   1.7010513064598E+00
(PID.TID 0000.0001) %MON dynstat_uvel_sd              =   7.8667281357830E+00
(PID.TID 0000.0001) %MON dynstat_uvel_del2            =   4.6081381050032E-03
(PID.TID 0000.0001) %MON dynstat_vvel_max             =   3.8203499529709E+01
(PID.TID 0000.0001) %MON dynstat_vvel_min             =  -3.3104515180046E+01
(PID.TID 0000.0001) %MON dynstat_vvel_mean            =   1.6755891399606E+00
(PID.TID 0000.0001) %MON dynstat_vvel_sd              =   7.8564093247377E+00
(PID.TID 0000.0001) %MON dynstat_vvel_del2            =   4.7321831493080E-03
(PID.TID 0000.0001) %MON dynstat_wvel_max             =   2.0141906303885E-01
(PID.TID 0000.0001) %MON dynstat_wvel_min             =  -2.1116974938827E-01
(PID.TID 0000.0001) %MON dynstat_wvel_mean            =   2.7065405077421E-18
(PID.TID 0000.0001) %MON dynstat_wvel_sd              =   2.6476022317898E-02
(PID.TID 0000.0001) %MON dynstat_wvel_del2            =   1.0257554554481E-04
(PID.TID 0000.0001) %MON dynstat_theta_max            =   4.8635363745324E+02
(PID.TID 0000.0001) %MON dynstat_theta_min            =   2.6911943860301E+02
(PID.TID 0000.0001) %MON dynstat_theta_mean           =   3.2508338835070E+02
(PID.TID 0000.0001) %MON dynstat_theta_sd             =   4.7904122567615E+01
(PID.TID 0000.0001) %MON dynstat_theta_del2           =   1.3256268487414E-03
(PID.TID 0000.0001) %MON dynstat_salt_max             =   2.8979630625191E-02
(PID.TID 0000.0001) %MON dynstat_salt_min             =  -1.6411628396730E-09
(PID.TID 0000.0001) %MON dynstat_salt_mean            =   2.6645515457277E-03
(PID.TID 0000.0001) %MON dynstat_salt_sd              =   4.3871470275136E-03
(PID.TID 0000.0001) %MON dynstat_salt_del2            =   1.3481433824485E-06
(PID.TID 0000.0001) %MON advcfl_uvel_max              =   3.1653231183402E-02
(PID.TID 0000.0001) %MON advcfl_vvel_max              =   3.5274881017097E-02
(PID.TID 0000.0001) %MON advcfl_wvel_max              =   5.0139236103270E-03
(PID.TID 0000.0001) %MON advcfl_W_hf_max              =   5.0149610279802E-03
(PID.TID 0000.0001) %MON pe_b_mean                    =   9.7325787336651E-04
(PID.TID 0000.0001) %MON ke_max                       =   8.6075777767801E+02
(PID.TID 0000.0001) %MON ke_mean                      =   6.4654876788440E+01
(PID.TID 0000.0001) %MON ke_vol                       =   5.1537074390047E+19
(PID.TID 0000.0001) %MON vort_r_min                   =  -4.8304148060958E-05
(PID.TID 0000.0001) %MON vort_r_max                   =   5.4514365087378E-05
(PID.TID 0000.0001) %MON vort_a_mean                  =  -6.3054248633174E-20
(PID.TID 0000.0001) %MON vort_a_sd                    =   8.5821471562210E-05
(PID.TID 0000.0001) %MON vort_p_mean                  =  -6.3054245930575E-20
(PID.TID 0000.0001) %MON vort_p_sd                    =   8.5822078073054E-05
(PID.TID 0000.0001) %MON surfExpan_theta_mean         =   6.6507156795408E-03
(PID.TID 0000.0001) %MON surfExpan_salt_mean          =  -6.8554687829916E-06
(PID.TID 0000.0001) %MON surfExpan_Heat_mean          =   9.3105036534194E-01
(PID.TID 0000.0001) %MON En_Budget_T2PE_mean          =  -1.3471007888188E-01
(PID.TID 0000.0001) // =======================================================
(PID.TID 0000.0001) // End MONITOR dynamic field statistics
(PID.TID 0000.0001) // =======================================================
 Current Date     20040321 Current Time         1200
 cg2d: Sum(rhs),rhsMax =   4.65661287307739E-10  6.49975235906292E+03
(PID.TID 0000.0001)                    cg2d_init_res =    2.67929222683744E+04
(PID.TID 0000.0001)                       cg2d_iters =     7
(PID.TID 0000.0001)                         cg2d_res =    2.54623902359459E-12
(PID.TID 0000.0001) // =======================================================
(PID.TID 0000.0001) // Begin MONITOR dynamic field statistics
(PID.TID 0000.0001) // =======================================================
(PID.TID 0000.0001) %MON time_tsnumber                =                     6
(PID.TID 0000.0001) %MON time_secondsf                =   7.2000000000000E+02
(PID.TID 0000.0001) %MON dynstat_eta_max              =   9.6815766409844E+01
(PID.TID 0000.0001) %MON dynstat_eta_min              =  -1.3101819627392E+02
(PID.TID 0000.0001) %MON dynstat_eta_mean             =  -1.5895353193704E-15
(PID.TID 0000.0001) %MON dynstat_eta_sd               =   2.1514853886993E+01
(PID.TID 0000.0001) %MON dynstat_eta_del2             =   2.9032527955626E-01
(PID.TID 0000.0001) %MON dynstat_uvel_max             =   4.1575696948383E+01
(PID.TID 0000.0001) %MON dynstat_uvel_min             =  -3.7045110713020E+01
(PID.TID 0000.0001) %MON dynstat_uvel_mean            =   1.7005618406429E+00
(PID.TID 0000.0001) %MON dynstat_uvel_sd              =   7.8647655992927E+00
(PID.TID 0000.0001) %MON dynstat_uvel_del2            =   4.6064204108313E-03
(PID.TID 0000.0001) %MON dynstat_vvel_max             =   3.8185875701147E+01
(PID.TID 0000.0001) %MON dynstat_vvel_min             =  -3.3032411541372E+01
(PID.TID 0000.0001) %MON dynstat_vvel_mean            =   1.6761646657755E+00
(PID.TID 0000.0001) %MON dynstat_vvel_sd              =   7.8569996980870E+00
(PID.TID 0000.0001) %MON dynstat_vvel_del2            =   4.7317347242128E-03
(PID.TID 0000.0001) %MON dynstat_wvel_max             =   2.0339753444350E-01
(PID.TID 0000.0001) %MON dynstat_wvel_min             =  -2.2547189512972E-01
(PID.TID 0000.0001) %MON dynstat_wvel_mean            =   0.0000000000000E+00
(PID.TID 0000.0001) %MON dynstat_wvel_sd              =   2.6520048136280E-02
(PID.TID 0000.0001) %MON dynstat_wvel_del2            =   1.0391319143995E-04
(PID.TID 0000.0001) %MON dynstat_theta_max            =   4.8645252891692E+02
(PID.TID 0000.0001) %MON dynstat_theta_min            =   2.6912109302669E+02
(PID.TID 0000.0001) %MON dynstat_theta_mean           =   3.2516881988899E+02
(PID.TID 0000.0001) %MON dynstat_theta_sd             =   4.7950091324450E+01
(PID.TID 0000.0001) %MON dynstat_theta_del2           =   2.4235605418717E-03
(PID.TID 0000.0001) %MON dynstat_salt_max             =   2.8233990956802E-02
(PID.TID 0000.0001) %MON dynstat_salt_min             =  -2.0808506095883E-09
(PID.TID 0000.0001) %MON dynstat_salt_mean            =   2.6446761537223E-03
(PID.TID 0000.0001) %MON dynstat_salt_sd              =   4.3492353063631E-03
(PID.TID 0000.0001) %MON dynstat_salt_del2            =   1.7472492234504E-06
(PID.TID 0000.0001) %MON advcfl_uvel_max              =   3.1652401047706E-02
(PID.TID 0000.0001) %MON advcfl_vvel_max              =   3.5255958631660E-02
(PID.TID 0000.0001) %MON advcfl_wvel_max              =   5.3535076010223E-03
(PID.TID 0000.0001) %MON advcfl_W_hf_max              =   5.3543831389729E-03
(PID.TID 0000.0001) %MON pe_b_mean                    =   1.8641504723880E-03
(PID.TID 0000.0001) %MON ke_max                       =   8.5982729797081E+02
(PID.TID 0000.0001) %MON ke_mean                      =   6.4644210389332E+01
(PID.TID 0000.0001) %MON ke_vol                       =   5.1537074390046E+19
(PID.TID 0000.0001) %MON vort_r_min                   =  -4.8294032579854E-05
(PID.TID 0000.0001) %MON vort_r_max                   =   5.4537603004156E-05
(PID.TID 0000.0001) %MON vort_a_mean                  =   1.2125817044841E-20
(PID.TID 0000.0001) %MON vort_a_sd                    =   8.5821019605502E-05
(PID.TID 0000.0001) %MON vort_p_mean                  =   1.2125816272932E-20
(PID.TID 0000.0001) %MON vort_p_sd                    =   8.5821955356102E-05
(PID.TID 0000.0001) %MON surfExpan_theta_mean         =   7.2892163424682E-03
(PID.TID 0000.0001) %MON surfExpan_salt_mean          =  -7.7275569699070E-06
(PID.TID 0000.0001) %MON surfExpan_Heat_mean          =   1.0933346278287E+00
(PID.TID 0000.0001) %MON En_Budget_T2PE_mean          =  -7.5661627809471E-02
(PID.TID 0000.0001) // =======================================================
(PID.TID 0000.0001) // End MONITOR dynamic field statistics
(PID.TID 0000.0001) // =======================================================
 Current Date     20040321 Current Time         1400
 cg2d: Sum(rhs),rhsMax =   6.98491930961609E-10  8.46123967370995E+03
(PID.TID 0000.0001)                    cg2d_init_res =    3.12297330380213E+04
(PID.TID 0000.0001)                       cg2d_iters =     7
(PID.TID 0000.0001)                         cg2d_res =    3.80017418074065E-12
(PID.TID 0000.0001) // =======================================================
(PID.TID 0000.0001) // Begin MONITOR dynamic field statistics
(PID.TID 0000.0001) // =======================================================
(PID.TID 0000.0001) %MON time_tsnumber                =                     7
(PID.TID 0000.0001) %MON time_secondsf                =   8.4000000000000E+02
(PID.TID 0000.0001) %MON dynstat_eta_max              =   1.1418139902553E+02
(PID.TID 0000.0001) %MON dynstat_eta_min              =  -1.7033378650913E+02
(PID.TID 0000.0001) %MON dynstat_eta_mean             =   1.9869191492130E-16
(PID.TID 0000.0001) %MON dynstat_eta_sd               =   2.8370990275006E+01
(PID.TID 0000.0001) %MON dynstat_eta_del2             =   3.6471615166666E-01
(PID.TID 0000.0001) %MON dynstat_uvel_max             =   4.1558836144468E+01
(PID.TID 0000.0001) %MON dynstat_uvel_min             =  -3.7072230922706E+01
(PID.TID 0000.0001) %MON dynstat_uvel_mean            =   1.7001163824853E+00
(PID.TID 0000.0001) %MON dynstat_uvel_sd              =   7.8628458781179E+00
(PID.TID 0000.0001) %MON dynstat_uvel_del2            =   4.6091161689903E-03
(PID.TID 0000.0001) %MON dynstat_vvel_max             =   3.8167877018637E+01
(PID.TID 0000.0001) %MON dynstat_vvel_min             =  -3.2960304202888E+01
(PID.TID 0000.0001) %MON dynstat_vvel_mean            =   1.6767202278759E+00
(PID.TID 0000.0001) %MON dynstat_vvel_sd              =   7.8576429516946E+00
(PID.TID 0000.0001) %MON dynstat_vvel_del2            =   4.7354842142171E-03
(PID.TID 0000.0001) %MON dynstat_wvel_max             =   2.2412827688301E-01
(PID.TID 0000.0001) %MON dynstat_wvel_min             =  -2.4036421627406E-01
(PID.TID 0000.0001) %MON dynstat_wvel_mean            =  -4.9354562200003E-18
(PID.TID 0000.0001) %MON dynstat_wvel_sd              =   2.6981813851491E-02
(PID.TID 0000.0001) %MON dynstat_wvel_del2            =   1.1526601753136E-04
(PID.TID 0000.0001) %MON dynstat_theta_max            =   4.8655117445755E+02
(PID.TID 0000.0001) %MON dynstat_theta_min            =   2.6912277443050E+02
(PID.TID 0000.0001) %MON dynstat_theta_mean           =   3.2525432840167E+02
(PID.TID 0000.0001) %MON dynstat_theta_sd             =   4.8001612725837E+01
(PID.TID 0000.0001) %MON dynstat_theta_del2           =   4.2207671105375E-03
(PID.TID 0000.0001) %MON dynstat_salt_max             =   2.7505555040462E-02
(PID.TID 0000.0001) %MON dynstat_salt_min             =  -1.6108353642048E-03
(PID.TID 0000.0001) %MON dynstat_salt_mean            =   2.6247973471729E-03
(PID.TID 0000.0001) %MON dynstat_salt_sd              =   4.3244270283657E-03
(PID.TID 0000.0001) %MON dynstat_salt_del2            =   2.4565289437868E-06
(PID.TID 0000.0001) %MON advcfl_uvel_max              =   3.1651582853450E-02
(PID.TID 0000.0001) %MON advcfl_vvel_max              =   3.5235851156204E-02
(PID.TID 0000.0001) %MON advcfl_wvel_max              =   5.7071044623837E-03
(PID.TID 0000.0001) %MON advcfl_W_hf_max              =   5.7075281519349E-03
(PID.TID 0000.0001) %MON pe_b_mean                    =   3.2415531955356E-03
(PID.TID 0000.0001) %MON ke_max                       =   8.5894680546267E+02
(PID.TID 0000.0001) %MON ke_mean                      =   6.4634342265154E+01
(PID.TID 0000.0001) %MON ke_vol                       =   5.1537074390047E+19
(PID.TID 0000.0001) %MON vort_r_min                   =  -4.8282749080144E-05
(PID.TID 0000.0001) %MON vort_r_max                   =   5.4560381322536E-05
(PID.TID 0000.0001) %MON vort_a_mean                  =   1.4793496794706E-19
(PID.TID 0000.0001) %MON vort_a_sd                    =   8.5820509093187E-05
(PID.TID 0000.0001) %MON vort_p_mean                  =   1.4793495495293E-19
(PID.TID 0000.0001) %MON vort_p_sd                    =   8.5821842510787E-05
(PID.TID 0000.0001) %MON surfExpan_theta_mean         =   4.8759887134487E-03
(PID.TID 0000.0001) %MON surfExpan_salt_mean          =  -8.1231567325179E-06
(PID.TID 0000.0001) %MON surfExpan_Heat_mean          =   1.0432500477704E+00
(PID.TID 0000.0001) %MON En_Budget_T2PE_mean          =   1.1113660476473E-01
(PID.TID 0000.0001) // =======================================================
(PID.TID 0000.0001) // End MONITOR dynamic field statistics
(PID.TID 0000.0001) // =======================================================
 Current Date     20040321 Current Time         1600
 cg2d: Sum(rhs),rhsMax =   1.16415321826935E-10  1.06756565935581E+04
(PID.TID 0000.0001)                    cg2d_init_res =    3.82458305130393E+04
(PID.TID 0000.0001)                       cg2d_iters =     7
(PID.TID 0000.0001)                         cg2d_res =    5.51904891368963E-12
(PID.TID 0000.0001) // =======================================================
(PID.TID 0000.0001) // Begin MONITOR dynamic field statistics
(PID.TID 0000.0001) // =======================================================
(PID.TID 0000.0001) %MON time_tsnumber                =                     8
(PID.TID 0000.0001) %MON time_secondsf                =   9.6000000000000E+02
(PID.TID 0000.0001) %MON dynstat_eta_max              =   1.3178337666803E+02
(PID.TID 0000.0001) %MON dynstat_eta_min              =  -2.1308896342412E+02
(PID.TID 0000.0001) %MON dynstat_eta_mean             =   5.1659897879539E-15
(PID.TID 0000.0001) %MON dynstat_eta_sd               =   3.6278294763198E+01
(PID.TID 0000.0001) %MON dynstat_eta_del2             =   4.8463542066214E-01
(PID.TID 0000.0001) %MON dynstat_uvel_max             =   4.1543310684339E+01
(PID.TID 0000.0001) %MON dynstat_uvel_min             =  -3.7098013203455E+01
(PID.TID 0000.0001) %MON dynstat_uvel_mean            =   1.6997205656679E+00
(PID.TID 0000.0001) %MON dynstat_uvel_sd              =   7.8611323789116E+00
(PID.TID 0000.0001) %MON dynstat_uvel_del2            =   4.6390694474194E-03
(PID.TID 0000.0001) %MON dynstat_vvel_max             =   3.8149672351600E+01
(PID.TID 0000.0001) %MON dynstat_vvel_min             =  -3.2954574863488E+01
(PID.TID 0000.0001) %MON dynstat_vvel_mean            =   1.6772604058726E+00
(PID.TID 0000.0001) %MON dynstat_vvel_sd              =   7.8584721486156E+00
(PID.TID 0000.0001) %MON dynstat_vvel_del2            =   4.7640242848440E-03
(PID.TID 0000.0001) %MON dynstat_wvel_max             =   2.4477545254677E-01
(PID.TID 0000.0001) %MON dynstat_wvel_min             =  -2.5561148739593E-01
(PID.TID 0000.0001) %MON dynstat_wvel_mean            =   2.7065405077421E-18
(PID.TID 0000.0001) %MON dynstat_wvel_sd              =   2.9779603200800E-02
(PID.TID 0000.0001) %MON dynstat_wvel_del2            =   1.7135373033680E-04
(PID.TID 0000.0001) %MON dynstat_theta_max            =   4.8664957007398E+02
(PID.TID 0000.0001) %MON dynstat_theta_min            =   2.6912445658772E+02
(PID.TID 0000.0001) %MON dynstat_theta_mean           =   3.2533984438070E+02
(PID.TID 0000.0001) %MON dynstat_theta_sd             =   4.8058662338740E+01
(PID.TID 0000.0001) %MON dynstat_theta_del2           =   6.1043685413997E-03
(PID.TID 0000.0001) %MON dynstat_salt_max             =   2.6778469775025E-02
(PID.TID 0000.0001) %MON dynstat_salt_min             =  -6.2366945980017E-03
(PID.TID 0000.0001) %MON dynstat_salt_mean            =   2.6049171087881E-03
(PID.TID 0000.0001) %MON dynstat_salt_sd              =   4.3122388384887E-03
(PID.TID 0000.0001) %MON dynstat_salt_del2            =   3.2950225794524E-06
(PID.TID 0000.0001) %MON advcfl_uvel_max              =   3.1652413967965E-02
(PID.TID 0000.0001) %MON advcfl_vvel_max              =   3.5215136159298E-02
(PID.TID 0000.0001) %MON advcfl_wvel_max              =   6.0691291031879E-03
(PID.TID 0000.0001) %MON advcfl_W_hf_max              =   6.0688382826893E-03
(PID.TID 0000.0001) %MON pe_b_mean                    =   5.3002687800148E-03
(PID.TID 0000.0001) %MON ke_max                       =   8.5812257432193E+02
(PID.TID 0000.0001) %MON ke_mean                      =   6.4627619647127E+01
(PID.TID 0000.0001) %MON ke_vol                       =   5.1537074390047E+19
(PID.TID 0000.0001) %MON vort_r_min                   =  -4.8270373618128E-05
(PID.TID 0000.0001) %MON vort_r_max                   =   5.4582711242550E-05
(PID.TID 0000.0001) %MON vort_a_mean                  =  -6.0629085224206E-20
(PID.TID 0000.0001) %MON vort_a_sd                    =   8.5819943704169E-05
(PID.TID 0000.0001) %MON vort_p_mean                  =  -6.0629078240615E-20
(PID.TID 0000.0001) %MON vort_p_sd                    =   8.5821740684522E-05
(PID.TID 0000.0001) %MON surfExpan_theta_mean         =  -3.8583505550570E-03
(PID.TID 0000.0001) %MON surfExpan_salt_mean          =  -7.1364695515737E-06
(PID.TID 0000.0001) %MON surfExpan_Heat_mean          =   5.5690522236209E-01
(PID.TID 0000.0001) %MON En_Budget_T2PE_mean          =   6.1282820483381E-01
(PID.TID 0000.0001) // =======================================================
(PID.TID 0000.0001) // End MONITOR dynamic field statistics
(PID.TID 0000.0001) // =======================================================
 Current Date     20040321 Current Time         1800
 cg2d: Sum(rhs),rhsMax =  -1.04773789644241E-09  1.30711553779569E+04
(PID.TID 0000.0001)                    cg2d_init_res =    4.93464610770006E+04
(PID.TID 0000.0001)                       cg2d_iters =     7
(PID.TID 0000.0001)                         cg2d_res =    7.65036338583673E-12
(PID.TID 0000.0001) // =======================================================
(PID.TID 0000.0001) // Begin MONITOR dynamic field statistics
(PID.TID 0000.0001) // =======================================================
(PID.TID 0000.0001) %MON time_tsnumber                =                     9
(PID.TID 0000.0001) %MON time_secondsf                =   1.0800000000000E+03
(PID.TID 0000.0001) %MON dynstat_eta_max              =   1.5215080212703E+02
(PID.TID 0000.0001) %MON dynstat_eta_min              =  -2.5865144051281E+02
(PID.TID 0000.0001) %MON dynstat_eta_mean             =  -9.9345957460651E-15
(PID.TID 0000.0001) %MON dynstat_eta_sd               =   4.5700967597331E+01
(PID.TID 0000.0001) %MON dynstat_eta_del2             =   7.1388153744512E-01
(PID.TID 0000.0001) %MON dynstat_uvel_max             =   4.1529263968108E+01
(PID.TID 0000.0001) %MON dynstat_uvel_min             =  -3.7122390543639E+01
(PID.TID 0000.0001) %MON dynstat_uvel_mean            =   1.6993762687547E+00
(PID.TID 0000.0001) %MON dynstat_uvel_sd              =   7.8600049501164E+00
(PID.TID 0000.0001) %MON dynstat_uvel_del2            =   4.7358167260167E-03
(PID.TID 0000.0001) %MON dynstat_vvel_max             =   3.8131419756945E+01
(PID.TID 0000.0001) %MON dynstat_vvel_min             =  -3.2945543165259E+01
(PID.TID 0000.0001) %MON dynstat_vvel_mean            =   1.6777834608030E+00
(PID.TID 0000.0001) %MON dynstat_vvel_sd              =   7.8598161151274E+00
(PID.TID 0000.0001) %MON dynstat_vvel_del2            =   4.8528735943122E-03
(PID.TID 0000.0001) %MON dynstat_wvel_max             =   3.3185423058418E-01
(PID.TID 0000.0001) %MON dynstat_wvel_min             =  -3.7197240718937E-01
(PID.TID 0000.0001) %MON dynstat_wvel_mean            =   6.0499140761294E-18
(PID.TID 0000.0001) %MON dynstat_wvel_sd              =   3.7318521274789E-02
(PID.TID 0000.0001) %MON dynstat_wvel_del2            =   2.8331424510009E-04
(PID.TID 0000.0001) %MON dynstat_theta_max            =   4.8674772993041E+02
(PID.TID 0000.0001) %MON dynstat_theta_min            =   2.6912614946309E+02
(PID.TID 0000.0001) %MON dynstat_theta_mean           =   3.2542550794052E+02
(PID.TID 0000.0001) %MON dynstat_theta_sd             =   4.8120646711961E+01
(PID.TID 0000.0001) %MON dynstat_theta_del2           =   7.9220470228233E-03
(PID.TID 0000.0001) %MON dynstat_salt_max             =   2.6058419425990E-02
(PID.TID 0000.0001) %MON dynstat_salt_min             =  -1.1591963194448E-02
(PID.TID 0000.0001) %MON dynstat_salt_mean            =   2.5850297880627E-03
(PID.TID 0000.0001) %MON dynstat_salt_sd              =   4.3004560031287E-03
(PID.TID 0000.0001) %MON dynstat_salt_del2            =   4.0166052897366E-06
(PID.TID 0000.0001) %MON advcfl_uvel_max              =   3.1654703509341E-02
(PID.TID 0000.0001) %MON advcfl_vvel_max              =   3.5194022223093E-02
(PID.TID 0000.0001) %MON advcfl_wvel_max              =   8.8319526835623E-03
(PID.TID 0000.0001) %MON advcfl_W_hf_max              =   8.8396456311581E-03
(PID.TID 0000.0001) %MON pe_b_mean                    =   8.4111417805415E-03
(PID.TID 0000.0001) %MON ke_max                       =   8.5735869769652E+02
(PID.TID 0000.0001) %MON ke_mean                      =   6.4629612126547E+01
(PID.TID 0000.0001) %MON ke_vol                       =   5.1537074390047E+19
(PID.TID 0000.0001) %MON vort_r_min                   =  -4.8256986852470E-05
(PID.TID 0000.0001) %MON vort_r_max                   =   5.4604604729854E-05
(PID.TID 0000.0001) %MON vort_a_mean                  =   1.1398268022151E-19
(PID.TID 0000.0001) %MON vort_a_sd                    =   8.5819321881685E-05
(PID.TID 0000.0001) %MON vort_p_mean                  =   1.1398266362916E-19
(PID.TID 0000.0001) %MON vort_p_sd                    =   8.5821645655030E-05
(PID.TID 0000.0001) %MON surfExpan_theta_mean         =  -2.1417010740148E-02
(PID.TID 0000.0001) %MON surfExpan_salt_mean          =  -4.0474224269480E-06
(PID.TID 0000.0001) %MON surfExpan_Heat_mean          =  -5.3709259755866E-01
(PID.TID 0000.0001) %MON En_Budget_T2PE_mean          =   1.6037538505114E+00
(PID.TID 0000.0001) // =======================================================
(PID.TID 0000.0001) // End MONITOR dynamic field statistics
(PID.TID 0000.0001) // =======================================================
 Current Date     20040321 Current Time         2000
 cg2d: Sum(rhs),rhsMax =   1.16415321826935E-09  1.87538246265236E+04
(PID.TID 0000.0001)                    cg2d_init_res =    6.42187313786244E+04
(PID.TID 0000.0001)                       cg2d_iters =     7
(PID.TID 0000.0001)                         cg2d_res =    1.01246339100083E-11
(PID.TID 0000.0001) // =======================================================
(PID.TID 0000.0001) // Begin MONITOR dynamic field statistics
(PID.TID 0000.0001) // =======================================================
(PID.TID 0000.0001) %MON time_tsnumber                =                    10
(PID.TID 0000.0001) %MON time_secondsf                =   1.2000000000000E+03
(PID.TID 0000.0001) %MON dynstat_eta_max              =   2.1135412548178E+02
(PID.TID 0000.0001) %MON dynstat_eta_min              =  -3.0640357453150E+02
(PID.TID 0000.0001) %MON dynstat_eta_mean             =  -3.9738382984260E-15
(PID.TID 0000.0001) %MON dynstat_eta_sd               =   5.7338762636152E+01
(PID.TID 0000.0001) %MON dynstat_eta_del2             =   1.1002299544646E+00
(PID.TID 0000.0001) %MON dynstat_uvel_max             =   4.1516784541496E+01
(PID.TID 0000.0001) %MON dynstat_uvel_min             =  -3.7145280634729E+01
(PID.TID 0000.0001) %MON dynstat_uvel_mean            =   1.6990883792002E+00
(PID.TID 0000.0001) %MON dynstat_uvel_sd              =   7.8599542904903E+00
(PID.TID 0000.0001) %MON dynstat_uvel_del2            =   4.9457956211651E-03
(PID.TID 0000.0001) %MON dynstat_vvel_max             =   3.8113259094674E+01
(PID.TID 0000.0001) %MON dynstat_vvel_min             =  -3.2933222718134E+01
(PID.TID 0000.0001) %MON dynstat_vvel_mean            =   1.6782923059061E+00
(PID.TID 0000.0001) %MON dynstat_vvel_sd              =   7.8620948580206E+00
(PID.TID 0000.0001) %MON dynstat_vvel_del2            =   5.0441136882360E-03
(PID.TID 0000.0001) %MON dynstat_wvel_max             =   5.5990602257460E-01
(PID.TID 0000.0001) %MON dynstat_wvel_min             =  -6.0727706491488E-01
(PID.TID 0000.0001) %MON dynstat_wvel_mean            =   1.1144578561291E-17
(PID.TID 0000.0001) %MON dynstat_wvel_sd              =   5.0489782280004E-02
(PID.TID 0000.0001) %MON dynstat_wvel_del2            =   4.4229988532678E-04
(PID.TID 0000.0001) %MON dynstat_theta_max            =   4.8684563777435E+02
(PID.TID 0000.0001) %MON dynstat_theta_min            =   2.6912784283532E+02
(PID.TID 0000.0001) %MON dynstat_theta_mean           =   3.2551117957505E+02
(PID.TID 0000.0001) %MON dynstat_theta_sd             =   4.8187881365097E+01
(PID.TID 0000.0001) %MON dynstat_theta_del2           =   9.7172853354395E-03
(PID.TID 0000.0001) %MON dynstat_salt_max             =   2.5883658076572E-02
(PID.TID 0000.0001) %MON dynstat_salt_min             =  -1.6937891952462E-02
(PID.TID 0000.0001) %MON dynstat_salt_mean            =   2.5651406402691E-03
(PID.TID 0000.0001) %MON dynstat_salt_sd              =   4.2984058676889E-03
(PID.TID 0000.0001) %MON dynstat_salt_del2            =   4.7736630249892E-06
(PID.TID 0000.0001) %MON advcfl_uvel_max              =   3.1657134963397E-02
(PID.TID 0000.0001) %MON advcfl_vvel_max              =   3.5172495257360E-02
(PID.TID 0000.0001) %MON advcfl_wvel_max              =   1.4418925166163E-02
(PID.TID 0000.0001) %MON advcfl_W_hf_max              =   1.4440960677586E-02
(PID.TID 0000.0001) %MON pe_b_mean                    =   1.3240390579552E-02
(PID.TID 0000.0001) %MON ke_max                       =   8.5710251521121E+02
(PID.TID 0000.0001) %MON ke_mean                      =   6.4647491703951E+01
(PID.TID 0000.0001) %MON ke_vol                       =   5.1537074390046E+19
(PID.TID 0000.0001) %MON vort_r_min                   =  -4.8242672003824E-05
(PID.TID 0000.0001) %MON vort_r_max                   =   5.4626074485103E-05
(PID.TID 0000.0001) %MON vort_a_mean                  =  -6.3054248633174E-20
(PID.TID 0000.0001) %MON vort_a_sd                    =   8.5818650829256E-05
(PID.TID 0000.0001) %MON vort_p_mean                  =  -6.0629074376494E-20
(PID.TID 0000.0001) %MON vort_p_sd                    =   8.5821561814803E-05
(PID.TID 0000.0001) %MON surfExpan_theta_mean         =  -4.9332255449599E-02
(PID.TID 0000.0001) %MON surfExpan_salt_mean          =   1.6350403919607E-06
(PID.TID 0000.0001) %MON surfExpan_Heat_mean          =  -2.3460864144972E+00
(PID.TID 0000.0001) %MON En_Budget_T2PE_mean          =   3.2393056067996E+00
(PID.TID 0000.0001) // =======================================================
(PID.TID 0000.0001) // End MONITOR dynamic field statistics
(PID.TID 0000.0001) // =======================================================
 Current Date     20040321 Current Time         2200
 cg2d: Sum(rhs),rhsMax =   2.09547579288483E-09  2.85741859931014E+04
(PID.TID 0000.0001)                    cg2d_init_res =    8.15622672173760E+04
(PID.TID 0000.0001)                       cg2d_iters =     7
(PID.TID 0000.0001)                         cg2d_res =    1.29507155238212E-11
(PID.TID 0000.0001) // =======================================================
(PID.TID 0000.0001) // Begin MONITOR dynamic field statistics
(PID.TID 0000.0001) // =======================================================
(PID.TID 0000.0001) %MON time_tsnumber                =                    11
(PID.TID 0000.0001) %MON time_secondsf                =   1.3200000000000E+03
(PID.TID 0000.0001) %MON dynstat_eta_max              =   3.3096347436175E+02
(PID.TID 0000.0001) %MON dynstat_eta_min              =  -3.8433599230364E+02
(PID.TID 0000.0001) %MON dynstat_eta_mean             =  -1.3511050214649E-14
(PID.TID 0000.0001) %MON dynstat_eta_sd               =   7.1911259706242E+01
(PID.TID 0000.0001) %MON dynstat_eta_del2             =   1.6566297750384E+00
(PID.TID 0000.0001) %MON dynstat_uvel_max             =   4.1505912233825E+01
(PID.TID 0000.0001) %MON dynstat_uvel_min             =  -3.7166590094991E+01
(PID.TID 0000.0001) %MON dynstat_uvel_mean            =   1.6988590681093E+00
(PID.TID 0000.0001) %MON dynstat_uvel_sd              =   7.8615837421655E+00
(PID.TID 0000.0001) %MON dynstat_uvel_del2            =   5.3080729591621E-03
(PID.TID 0000.0001) %MON dynstat_vvel_max             =   3.8095301395743E+01
(PID.TID 0000.0001) %MON dynstat_vvel_min             =  -3.2917658147479E+01
(PID.TID 0000.0001) %MON dynstat_vvel_mean            =   1.6787851230697E+00
(PID.TID 0000.0001) %MON dynstat_vvel_sd              =   7.8658224632944E+00
(PID.TID 0000.0001) %MON dynstat_vvel_del2            =   5.3740184246849E-03
(PID.TID 0000.0001) %MON dynstat_wvel_max             =   8.4745960864962E-01
(PID.TID 0000.0001) %MON dynstat_wvel_min             =  -8.9428386238210E-01
(PID.TID 0000.0001) %MON dynstat_wvel_mean            =  -3.8209983638712E-18
(PID.TID 0000.0001) %MON dynstat_wvel_sd              =   6.8783675882649E-02
(PID.TID 0000.0001) %MON dynstat_wvel_del2            =   6.4116736006962E-04
(PID.TID 0000.0001) %MON dynstat_theta_max            =   4.8694331341650E+02
(PID.TID 0000.0001) %MON dynstat_theta_min            =   2.6912953911687E+02
(PID.TID 0000.0001) %MON dynstat_theta_mean           =   3.2553902317224E+02
(PID.TID 0000.0001) %MON dynstat_theta_sd             =   4.8224521422666E+01
(PID.TID 0000.0001) %MON dynstat_theta_del2           =   9.5586873514264E-03
(PID.TID 0000.0001) %MON dynstat_salt_max             =   2.5859978639036E-02
(PID.TID 0000.0001) %MON dynstat_salt_min             =  -1.7041974394310E-02
(PID.TID 0000.0001) %MON dynstat_salt_mean            =   2.5600986197178E-03
(PID.TID 0000.0001) %MON dynstat_salt_sd              =   4.2238775166268E-03
(PID.TID 0000.0001) %MON dynstat_salt_del2            =   4.0066074564709E-06
(PID.TID 0000.0001) %MON advcfl_uvel_max              =   3.1658047946783E-02
(PID.TID 0000.0001) %MON advcfl_vvel_max              =   3.5150494988738E-02
(PID.TID 0000.0001) %MON advcfl_wvel_max              =   2.1233490994431E-02
(PID.TID 0000.0001) %MON advcfl_W_hf_max              =   2.1286616162721E-02
(PID.TID 0000.0001) %MON pe_b_mean                    =   2.0825620801158E-02
(PID.TID 0000.0001) %MON ke_max                       =   8.5709785626496E+02
(PID.TID 0000.0001) %MON ke_mean                      =   6.4690051791306E+01
(PID.TID 0000.0001) %MON ke_vol                       =   5.1537074390046E+19
(PID.TID 0000.0001) %MON vort_r_min                   =  -4.8227512513027E-05
(PID.TID 0000.0001) %MON vort_r_max                   =   5.4647133789851E-05
(PID.TID 0000.0001) %MON vort_a_mean                  =   8.4880719313889E-20
(PID.TID 0000.0001) %MON vort_a_sd                    =   8.5817925204716E-05
(PID.TID 0000.0001) %MON vort_p_mean                  =   8.4880701045874E-20
(PID.TID 0000.0001) %MON vort_p_sd                    =   8.5821480929871E-05
(PID.TID 0000.0001) %MON surfExpan_theta_mean         =  -7.3472107256073E-02
(PID.TID 0000.0001) %MON surfExpan_salt_mean          =   6.3775124099145E-06
(PID.TID 0000.0001) %MON surfExpan_Heat_mean          =  -3.9476354051641E+00
(PID.TID 0000.0001) %MON En_Budget_T2PE_mean          =   4.8119091680484E+00
(PID.TID 0000.0001) // =======================================================
(PID.TID 0000.0001) // End MONITOR dynamic field statistics
(PID.TID 0000.0001) // =======================================================
 Current Date     20040321 Current Time         2400
 cg2d: Sum(rhs),rhsMax =   5.58793544769287E-09  4.06514113168928E+04
(PID.TID 0000.0001)                    cg2d_init_res =    9.60724180378223E+04
(PID.TID 0000.0001)                       cg2d_iters =     7
(PID.TID 0000.0001)                         cg2d_res =    1.60087695453875E-11
(PID.TID 0000.0001) // =======================================================
(PID.TID 0000.0001) // Begin MONITOR dynamic field statistics
(PID.TID 0000.0001) // =======================================================
(PID.TID 0000.0001) %MON time_tsnumber                =                    12
(PID.TID 0000.0001) %MON time_secondsf                =   1.4400000000000E+03
(PID.TID 0000.0001) %MON dynstat_eta_max              =   4.7830672369236E+02
(PID.TID 0000.0001) %MON dynstat_eta_min              =  -5.4700406708053E+02
(PID.TID 0000.0001) %MON dynstat_eta_mean             =   5.5633736177965E-15
(PID.TID 0000.0001) %MON dynstat_eta_sd               =   8.9433231615938E+01
(PID.TID 0000.0001) %MON dynstat_eta_del2             =   2.3398202738352E+00
(PID.TID 0000.0001) %MON dynstat_uvel_max             =   4.1496640209490E+01
(PID.TID 0000.0001) %MON dynstat_uvel_min             =  -3.7186216413563E+01
(PID.TID 0000.0001) %MON dynstat_uvel_mean            =   1.6986923702270E+00
(PID.TID 0000.0001) %MON dynstat_uvel_sd              =   7.8644722772971E+00
(PID.TID 0000.0001) %MON dynstat_uvel_del2            =   5.7490426408675E-03
(PID.TID 0000.0001) %MON dynstat_vvel_max             =   3.8077622042947E+01
(PID.TID 0000.0001) %MON dynstat_vvel_min             =  -3.2898922862028E+01
(PID.TID 0000.0001) %MON dynstat_vvel_mean            =   1.6792633196108E+00
(PID.TID 0000.0001) %MON dynstat_vvel_sd              =   7.8705697176794E+00
(PID.TID 0000.0001) %MON dynstat_vvel_del2            =   5.7737187685365E-03
(PID.TID 0000.0001) %MON dynstat_wvel_max             =   1.1509887696294E+00
(PID.TID 0000.0001) %MON dynstat_wvel_min             =  -1.2007777494689E+00
(PID.TID 0000.0001) %MON dynstat_wvel_mean            =  -1.0507745500646E-17
(PID.TID 0000.0001) %MON dynstat_wvel_sd              =   8.8132623544748E-02
(PID.TID 0000.0001) %MON dynstat_wvel_del2            =   8.4087241961774E-04
(PID.TID 0000.0001) %MON dynstat_theta_max            =   4.8704073452156E+02
(PID.TID 0000.0001) %MON dynstat_theta_min            =   2.6913123561218E+02
(PID.TID 0000.0001) %MON dynstat_theta_mean           =   3.2556685089204E+02
(PID.TID 0000.0001) %MON dynstat_theta_sd             =   4.8263699820984E+01
(PID.TID 0000.0001) %MON dynstat_theta_del2           =   9.6669773927775E-03
(PID.TID 0000.0001) %MON dynstat_salt_max             =   2.5834512310467E-02
(PID.TID 0000.0001) %MON dynstat_salt_min             =  -2.5797392594562E-02
(PID.TID 0000.0001) %MON dynstat_salt_mean            =   2.5550606356964E-03
(PID.TID 0000.0001) %MON dynstat_salt_sd              =   4.2113801972640E-03
(PID.TID 0000.0001) %MON dynstat_salt_del2            =   4.7292576696673E-06
(PID.TID 0000.0001) %MON advcfl_uvel_max              =   3.1656062050781E-02
(PID.TID 0000.0001) %MON advcfl_vvel_max              =   3.5128055252625E-02
(PID.TID 0000.0001) %MON advcfl_wvel_max              =   2.8510749888458E-02
(PID.TID 0000.0001) %MON advcfl_W_hf_max              =   2.8619569940023E-02
(PID.TID 0000.0001) %MON pe_b_mean                    =   3.2210837081313E-02
(PID.TID 0000.0001) %MON ke_max                       =   8.5709533569452E+02
(PID.TID 0000.0001) %MON ke_mean                      =   6.4750636461207E+01
(PID.TID 0000.0001) %MON ke_vol                       =   5.1537074390047E+19
(PID.TID 0000.0001) %MON vort_r_min                   =  -4.8211590066252E-05
(PID.TID 0000.0001) %MON vort_r_max                   =   5.4667796352527E-05
(PID.TID 0000.0001) %MON vort_a_mean                  =   6.0629085224206E-20
(PID.TID 0000.0001) %MON vort_a_sd                    =   8.5817160970803E-05
(PID.TID 0000.0001) %MON vort_p_mean                  =   6.0629069795118E-20
(PID.TID 0000.0001) %MON vort_p_sd                    =   8.5821415972778E-05
(PID.TID 0000.0001) %MON surfExpan_theta_mean         =  -9.5409528378509E-02
(PID.TID 0000.0001) %MON surfExpan_salt_mean          =   1.0792358631941E-05
(PID.TID 0000.0001) %MON surfExpan_Heat_mean          =  -5.4264897301453E+00
(PID.TID 0000.0001) %MON En_Budget_T2PE_mean          =   6.3951708777668E+00
(PID.TID 0000.0001) // =======================================================
(PID.TID 0000.0001) // End MONITOR dynamic field statistics
(PID.TID 0000.0001) // =======================================================
 Current Date     20040321 Current Time         2600
 cg2d: Sum(rhs),rhsMax =   5.35510480403900E-09  5.45992517742744E+04
(PID.TID 0000.0001)                    cg2d_init_res =    1.06927857204712E+05
(PID.TID 0000.0001)                       cg2d_iters =     7
(PID.TID 0000.0001)                         cg2d_res =    1.91536619045367E-11
(PID.TID 0000.0001) // =======================================================
(PID.TID 0000.0001) // Begin MONITOR dynamic field statistics
(PID.TID 0000.0001) // =======================================================
(PID.TID 0000.0001) %MON time_tsnumber                =                    13
(PID.TID 0000.0001) %MON time_secondsf                =   1.5600000000000E+03
(PID.TID 0000.0001) %MON dynstat_eta_max              =   6.4758073531605E+02
(PID.TID 0000.0001) %MON dynstat_eta_min              =  -7.3513223257446E+02
(PID.TID 0000.0001) %MON dynstat_eta_mean             =  -2.6227332769612E-14
(PID.TID 0000.0001) %MON dynstat_eta_sd               =   1.0943991486923E+02
(PID.TID 0000.0001) %MON dynstat_eta_del2             =   3.1004086061015E+00
(PID.TID 0000.0001) %MON dynstat_uvel_max             =   4.1488922503370E+01
(PID.TID 0000.0001) %MON dynstat_uvel_min             =  -3.7204053020522E+01
(PID.TID 0000.0001) %MON dynstat_uvel_mean            =   1.6985889096109E+00
(PID.TID 0000.0001) %MON dynstat_uvel_sd              =   7.8685190869415E+00
(PID.TID 0000.0001) %MON dynstat_uvel_del2            =   6.2373316993186E-03
(PID.TID 0000.0001) %MON dynstat_vvel_max             =   3.8060252821207E+01
(PID.TID 0000.0001) %MON dynstat_vvel_min             =  -3.2877115683124E+01
(PID.TID 0000.0001) %MON dynstat_vvel_mean            =   1.6797218842517E+00
(PID.TID 0000.0001) %MON dynstat_vvel_sd              =   7.8762329114154E+00
(PID.TID 0000.0001) %MON dynstat_vvel_del2            =   6.2142597431393E-03
(PID.TID 0000.0001) %MON dynstat_wvel_max             =   1.4681328248220E+00
(PID.TID 0000.0001) %MON dynstat_wvel_min             =  -1.5243902223305E+00
(PID.TID 0000.0001) %MON dynstat_wvel_mean            =   5.4130810154842E-18
(PID.TID 0000.0001) %MON dynstat_wvel_sd              =   1.0793103927938E-01
(PID.TID 0000.0001) %MON dynstat_wvel_del2            =   1.0393862780340E-03
(PID.TID 0000.0001) %MON dynstat_theta_max            =   4.8713792659989E+02
(PID.TID 0000.0001) %MON dynstat_theta_min            =   2.6913293170293E+02
(PID.TID 0000.0001) %MON dynstat_theta_mean           =   3.2559456355469E+02
(PID.TID 0000.0001) %MON dynstat_theta_sd             =   4.8304353420901E+01
(PID.TID 0000.0001) %MON dynstat_theta_del2           =   9.8931176710742E-03
(PID.TID 0000.0001) %MON dynstat_salt_max             =   2.6275384527756E-02
(PID.TID 0000.0001) %MON dynstat_salt_min             =  -3.5840739153862E-02
(PID.TID 0000.0001) %MON dynstat_salt_mean            =   2.5500196368627E-03
(PID.TID 0000.0001) %MON dynstat_salt_sd              =   4.2350129790669E-03
(PID.TID 0000.0001) %MON dynstat_salt_del2            =   5.9699901958315E-06
(PID.TID 0000.0001) %MON advcfl_uvel_max              =   3.1650409069543E-02
(PID.TID 0000.0001) %MON advcfl_vvel_max              =   3.5105361129122E-02
(PID.TID 0000.0001) %MON advcfl_wvel_max              =   3.6194465112715E-02
(PID.TID 0000.0001) %MON advcfl_W_hf_max              =   3.6391400650533E-02
(PID.TID 0000.0001) %MON pe_b_mean                    =   4.8234264026572E-02
(PID.TID 0000.0001) %MON ke_max                       =   8.5709935509970E+02
(PID.TID 0000.0001) %MON ke_mean                      =   6.4827653666354E+01
(PID.TID 0000.0001) %MON ke_vol                       =   5.1537074390047E+19
(PID.TID 0000.0001) %MON vort_r_min                   =  -4.8194979247605E-05
(PID.TID 0000.0001) %MON vort_r_max                   =   5.4688075986536E-05
(PID.TID 0000.0001) %MON vort_a_mean                  =   3.1527124316587E-20
(PID.TID 0000.0001) %MON vort_a_sd                    =   8.5816344839066E-05
(PID.TID 0000.0001) %MON vort_p_mean                  =   2.9101952272595E-20
(PID.TID 0000.0001) %MON vort_p_sd                    =   8.5821351267596E-05
(PID.TID 0000.0001) %MON surfExpan_theta_mean         =  -1.1460787526279E-01
(PID.TID 0000.0001) %MON surfExpan_salt_mean          =   1.4734624077673E-05
(PID.TID 0000.0001) %MON surfExpan_Heat_mean          =  -6.7455781493666E+00
(PID.TID 0000.0001) %MON En_Budget_T2PE_mean          =   7.9708482159536E+00
(PID.TID 0000.0001) // =======================================================
(PID.TID 0000.0001) // End MONITOR dynamic field statistics
(PID.TID 0000.0001) // =======================================================
 Current Date     20040321 Current Time         2800
 cg2d: Sum(rhs),rhsMax =   2.32830643653870E-09  6.99351845876632E+04
(PID.TID 0000.0001)                    cg2d_init_res =    1.14015560156517E+05
(PID.TID 0000.0001)                       cg2d_iters =     7
(PID.TID 0000.0001)                         cg2d_res =    2.22016413645007E-11
(PID.TID 0000.0001) // =======================================================
(PID.TID 0000.0001) // Begin MONITOR dynamic field statistics
(PID.TID 0000.0001) // =======================================================
(PID.TID 0000.0001) %MON time_tsnumber                =                    14
(PID.TID 0000.0001) %MON time_secondsf                =   1.6800000000000E+03
(PID.TID 0000.0001) %MON dynstat_eta_max              =   8.3160523512981E+02
(PID.TID 0000.0001) %MON dynstat_eta_min              =  -9.4227132983529E+02
(PID.TID 0000.0001) %MON dynstat_eta_mean             =  -2.3843029790556E-15
(PID.TID 0000.0001) %MON dynstat_eta_sd               =   1.3122528598552E+02
(PID.TID 0000.0001) %MON dynstat_eta_del2             =   3.8910187126713E+00
(PID.TID 0000.0001) %MON dynstat_uvel_max             =   4.1482677556485E+01
(PID.TID 0000.0001) %MON dynstat_uvel_min             =  -3.7219991801702E+01
(PID.TID 0000.0001) %MON dynstat_uvel_mean            =   1.6985519648346E+00
(PID.TID 0000.0001) %MON dynstat_uvel_sd              =   7.8736503375499E+00
(PID.TID 0000.0001) %MON dynstat_uvel_del2            =   6.7514130432791E-03
(PID.TID 0000.0001) %MON dynstat_vvel_max             =   3.8043178396115E+01
(PID.TID 0000.0001) %MON dynstat_vvel_min             =  -3.2852357588559E+01
(PID.TID 0000.0001) %MON dynstat_vvel_mean            =   1.6801608847764E+00
(PID.TID 0000.0001) %MON dynstat_vvel_sd              =   7.8827418126471E+00
(PID.TID 0000.0001) %MON dynstat_vvel_del2            =   6.6760097055506E-03
(PID.TID 0000.0001) %MON dynstat_wvel_max             =   1.7959415429785E+00
(PID.TID 0000.0001) %MON dynstat_wvel_min             =  -1.8643961033494E+00
(PID.TID 0000.0001) %MON dynstat_wvel_mean            =  -7.1643719322585E-18
(PID.TID 0000.0001) %MON dynstat_wvel_sd              =   1.2787993985045E-01
(PID.TID 0000.0001) %MON dynstat_wvel_del2            =   1.2353611564326E-03
(PID.TID 0000.0001) %MON dynstat_theta_max            =   4.8723486145527E+02
(PID.TID 0000.0001) %MON dynstat_theta_min            =   2.6913462772161E+02
(PID.TID 0000.0001) %MON dynstat_theta_mean           =   3.2562226425247E+02
(PID.TID 0000.0001) %MON dynstat_theta_sd             =   4.8346095836981E+01
(PID.TID 0000.0001) %MON dynstat_theta_del2           =   1.0223488854848E-02
(PID.TID 0000.0001) %MON dynstat_salt_max             =   3.9884354130254E-02
(PID.TID 0000.0001) %MON dynstat_salt_min             =  -5.0755399836543E-02
(PID.TID 0000.0001) %MON dynstat_salt_mean            =   2.5449819121697E-03
(PID.TID 0000.0001) %MON dynstat_salt_sd              =   4.2960259167396E-03
(PID.TID 0000.0001) %MON dynstat_salt_del2            =   7.5646921977258E-06
(PID.TID 0000.0001) %MON advcfl_uvel_max              =   3.1640980049401E-02
(PID.TID 0000.0001) %MON advcfl_vvel_max              =   3.5082728288881E-02
(PID.TID 0000.0001) %MON advcfl_wvel_max              =   4.4267418362074E-02
(PID.TID 0000.0001) %MON advcfl_W_hf_max              =   4.4591723997378E-02
(PID.TID 0000.0001) %MON pe_b_mean                    =   6.9348842880477E-02
(PID.TID 0000.0001) %MON ke_max                       =   8.5711397189309E+02
(PID.TID 0000.0001) %MON ke_mean                      =   6.4920003702168E+01
(PID.TID 0000.0001) %MON ke_vol                       =   5.1537074390046E+19
(PID.TID 0000.0001) %MON vort_r_min                   =  -4.8177749289525E-05
(PID.TID 0000.0001) %MON vort_r_max                   =   5.4707987126233E-05
(PID.TID 0000.0001) %MON vort_a_mean                  =  -1.9643823612643E-19
(PID.TID 0000.0001) %MON vort_a_sd                    =   8.5815502440596E-05
(PID.TID 0000.0001) %MON vort_p_mean                  =  -1.9401300638230E-19
(PID.TID 0000.0001) %MON vort_p_sd                    =   8.5821309999028E-05
(PID.TID 0000.0001) %MON surfExpan_theta_mean         =  -1.3086796159132E-01
(PID.TID 0000.0001) %MON surfExpan_salt_mean          =   1.8089544435447E-05
(PID.TID 0000.0001) %MON surfExpan_Heat_mean          =  -7.8847713689375E+00
(PID.TID 0000.0001) %MON En_Budget_T2PE_mean          =   9.5301185698003E+00
(PID.TID 0000.0001) // =======================================================
(PID.TID 0000.0001) // End MONITOR dynamic field statistics
(PID.TID 0000.0001) // =======================================================
 Current Date     20040321 Current Time         3000
 cg2d: Sum(rhs),rhsMax =  -1.39698386192322E-09  8.61152497365233E+04
(PID.TID 0000.0001)                    cg2d_init_res =    1.17675566153993E+05
(PID.TID 0000.0001)                       cg2d_iters =     7
(PID.TID 0000.0001)                         cg2d_res =    2.49793736267218E-11
(PID.TID 0000.0001) // =======================================================
(PID.TID 0000.0001) // Begin MONITOR dynamic field statistics
(PID.TID 0000.0001) // =======================================================
(PID.TID 0000.0001) %MON time_tsnumber                =                    15
(PID.TID 0000.0001) %MON time_secondsf                =   1.8000000000000E+03
(PID.TID 0000.0001) %MON dynstat_eta_max              =   1.0222867007195E+03
(PID.TID 0000.0001) %MON dynstat_eta_min              =  -1.1611260832198E+03
(PID.TID 0000.0001) %MON dynstat_eta_mean             =   3.0201171068038E-14
(PID.TID 0000.0001) %MON dynstat_eta_sd               =   1.5403040342998E+02
(PID.TID 0000.0001) %MON dynstat_eta_del2             =   4.6689477641013E+00
(PID.TID 0000.0001) %MON dynstat_uvel_max             =   4.1477796000831E+01
(PID.TID 0000.0001) %MON dynstat_uvel_min             =  -3.7233928170295E+01
(PID.TID 0000.0001) %MON dynstat_uvel_mean            =   1.6985823433055E+00
(PID.TID 0000.0001) %MON dynstat_uvel_sd              =   7.8797834554211E+00
(PID.TID 0000.0001) %MON dynstat_uvel_del2            =   7.2779425335772E-03
(PID.TID 0000.0001) %MON dynstat_vvel_max             =   3.8026333114192E+01
(PID.TID 0000.0001) %MON dynstat_vvel_min             =  -3.2824787627946E+01
(PID.TID 0000.0001) %MON dynstat_vvel_mean            =   1.6805772021859E+00
(PID.TID 0000.0001) %MON dynstat_vvel_sd              =   7.8900208765872E+00
(PID.TID 0000.0001) %MON dynstat_vvel_del2            =   7.1470368502162E-03
(PID.TID 0000.0001) %MON dynstat_wvel_max             =   2.1319177539974E+00
(PID.TID 0000.0001) %MON dynstat_wvel_min             =  -2.2185212834628E+00
(PID.TID 0000.0001) %MON dynstat_wvel_mean            =  -6.6867471367746E-18
(PID.TID 0000.0001) %MON dynstat_wvel_sd              =   1.4781240412927E-01
(PID.TID 0000.0001) %MON dynstat_wvel_del2            =   1.4279815446247E-03
(PID.TID 0000.0001) %MON dynstat_theta_max            =   4.8733196040688E+02
(PID.TID 0000.0001) %MON dynstat_theta_min            =   2.6913632189723E+02
(PID.TID 0000.0001) %MON dynstat_theta_mean           =   3.2564990715766E+02
(PID.TID 0000.0001) %MON dynstat_theta_sd             =   4.8389026907370E+01
(PID.TID 0000.0001) %MON dynstat_theta_del2           =   1.0663278754143E-02
(PID.TID 0000.0001) %MON dynstat_salt_max             =   5.3308870838939E-02
(PID.TID 0000.0001) %MON dynstat_salt_min             =  -6.5257687604475E-02
(PID.TID 0000.0001) %MON dynstat_salt_mean            =   2.5399411081383E-03
(PID.TID 0000.0001) %MON dynstat_salt_sd              =   4.3902457926515E-03
(PID.TID 0000.0001) %MON dynstat_salt_del2            =   9.2826299520079E-06
(PID.TID 0000.0001) %MON advcfl_uvel_max              =   3.1628158180369E-02
(PID.TID 0000.0001) %MON advcfl_vvel_max              =   3.5060523598573E-02
(PID.TID 0000.0001) %MON advcfl_wvel_max              =   5.2675614170070E-02
(PID.TID 0000.0001) %MON advcfl_W_hf_max              =   5.3171278708032E-02
(PID.TID 0000.0001) %MON pe_b_mean                    =   9.5547002962770E-02
(PID.TID 0000.0001) %MON ke_max                       =   8.5714285358262E+02
(PID.TID 0000.0001) %MON ke_mean                      =   6.5026469154202E+01
(PID.TID 0000.0001) %MON ke_vol                       =   5.1537074390047E+19
(PID.TID 0000.0001) %MON vort_r_min                   =  -4.8159966407909E-05
(PID.TID 0000.0001) %MON vort_r_max                   =   5.4727544743912E-05
(PID.TID 0000.0001) %MON vort_a_mean                  =   1.1155751681254E-19
(PID.TID 0000.0001) %MON vort_a_sd                    =   8.5814616956940E-05
(PID.TID 0000.0001) %MON vort_p_mean                  =   1.1155747330186E-19
(PID.TID 0000.0001) %MON vort_p_sd                    =   8.5821272880412E-05
(PID.TID 0000.0001) %MON surfExpan_theta_mean         =  -1.4422584566255E-01
(PID.TID 0000.0001) %MON surfExpan_salt_mean          =   2.0789006767968E-05
(PID.TID 0000.0001) %MON surfExpan_Heat_mean          =  -8.8403897880909E+00
(PID.TID 0000.0001) %MON En_Budget_T2PE_mean          =   1.1063842503836E+01
(PID.TID 0000.0001) // =======================================================
(PID.TID 0000.0001) // End MONITOR dynamic field statistics
(PID.TID 0000.0001) // =======================================================
 Computing Diagnostic #    214  RADSWT       Counter:      15   Parms: SM      U1      
 Computing Diagnostic #    237  OSR          Counter:      15   Parms: SM      U1      
 Computing Diagnostic #    203  OLR          Counter:       1   Parms: SM      U1      
 Computing Diagnostic #    376  PLALBEDO     Counter:      15   Parms: SM      L1      
 Computing Diagnostic #    267  CLDFRC       Counter:       1   Parms: SM P    M1      
 Computing Diagnostic #    187  PREACC       Counter:       3   Parms: SM      L1      
 Computing Diagnostic #    188  PRECON       Counter:       3   Parms: SM      L1      
 Computing Diagnostic #    218  EVAP         Counter:       8   Parms: SM      L1      
 Computing Diagnostic #    171  RADSWG       Counter:      15   Parms: SM      L1      
 Computing Diagnostic #    347  ALBNIRDF     Counter:       1   Parms: SM      L1      
 Computing Diagnostic #    345  ALBVISDF     Counter:       1   Parms: SM      L1      
 Computing Diagnostic #    212  LWGDOWN      Counter:       8   Parms: SM      L1      
 Computing Diagnostic #    202  LWGUP        Counter:      15   Parms: SM      L1      
 Computing Diagnostic #    166  EFLUX        Counter:       8   Parms: SM      L1      
 Computing Diagnostic #    165  HFLUX        Counter:       8   Parms: SM      L1      
 Computing Diagnostic #    271  T2M          Counter:       8   Parms: SM      M1      
 Computing Diagnostic #    272  Q2M          Counter:       8   Parms: SM P    M1      
 Computing Diagnostic #    167  UFLUX        Counter:       8   Parms: UM      L1      
           Vector  Mate for  UFLUX        Diagnostic #    168  VFLUX    exists 
 Computing Diagnostic #    168  VFLUX        Counter:       8   Parms: VM      L1      
           Vector  Mate for  VFLUX        Diagnostic #    167  UFLUX    exists 
 Computing Diagnostic #    273  U10M         Counter:       8   Parms: UM      M1      
           Vector  Mate for  U10M         Diagnostic #    274  V10M     exists 
 Computing Diagnostic #    274  V10M         Counter:       8   Parms: VM      M1      
           Vector  Mate for  V10M         Diagnostic #    273  U10M     exists 
 Computing Diagnostic #    245  PS           Counter:      15   Parms: SM      L1      
 Computing Diagnostic #    238  OSRCLR       Counter:      15   Parms: SM      U1      
 Computing Diagnostic #    204  OLRCLR       Counter:       1   Parms: SM      U1      
 Computing Diagnostic #    248  SWGCLR       Counter:      15   Parms: SM      L1      
 Computing Diagnostic #    205  LWGCLR       Counter:      15   Parms: SM      L1      
 Computing Diagnostic #     88  RSURF        Counter:      15   Parms: SM      M1      
 Compute Stats, Diag. #    214  RADSWT    vol(   0 ): 7.648E+15  Parms: SM      U1      
 Compute Stats, Diag. #    237  OSR       vol(   0 ): 7.648E+15  Parms: SM      U1      
 Compute Stats, Diag. #    203  OLR       vol(   0 ): 5.099E+14  Parms: SM      U1      
 Compute Stats, Diag. #    376  PLALBEDO  vol(   0 ): 7.648E+15  Parms: SM      L1      
 Compute Stats, Diag. #    267  CLDFRC    vol(   0 ): 5.099E+14  Parms: SM P    M1      
 Compute Stats, Diag. #    187  PREACC    vol(   0 ): 1.530E+15  Parms: SM      L1      
 Compute Stats, Diag. #    188  PRECON    vol(   0 ): 1.530E+15  Parms: SM      L1      
 Compute Stats, Diag. #    218  EVAP      vol(   0 ): 4.079E+15  Parms: SM      L1      
 Compute Stats, Diag. #    171  RADSWG    vol(   0 ): 7.648E+15  Parms: SM      L1      
 Compute Stats, Diag. #    347  ALBNIRDF  vol(   0 ): 5.099E+14  Parms: SM      L1      
 Compute Stats, Diag. #    345  ALBVISDF  vol(   0 ): 5.099E+14  Parms: SM      L1      
 Compute Stats, Diag. #    212  LWGDOWN   vol(   0 ): 4.079E+15  Parms: SM      L1      
 Compute Stats, Diag. #    202  LWGUP     vol(   0 ): 7.648E+15  Parms: SM      L1      
 Compute Stats, Diag. #    166  EFLUX     vol(   0 ): 4.079E+15  Parms: SM      L1      
 Compute Stats, Diag. #    165  HFLUX     vol(   0 ): 4.079E+15  Parms: SM      L1      
 Compute Stats, Diag. #    271  T2M       vol(   0 ): 4.079E+15  Parms: SM      M1      
 Compute Stats, Diag. #    272  Q2M       vol(   0 ): 4.079E+15  Parms: SM P    M1      
 Compute Stats, Diag. #    167  UFLUX     vol(   0 ): 4.079E+15  Parms: UM      L1      
 Compute Stats, Diag. #    168  VFLUX     vol(   0 ): 4.079E+15  Parms: VM      L1      
 Compute Stats, Diag. #    273  U10M      vol(   0 ): 4.079E+15  Parms: UM      M1      
 Compute Stats, Diag. #    274  V10M      vol(   0 ): 4.079E+15  Parms: VM      M1      
 Compute Stats, Diag. #    245  PS        vol(   0 ): 7.648E+15  Parms: SM      L1      
 Compute Stats, Diag. #    238  OSRCLR    vol(   0 ): 7.648E+15  Parms: SM      U1      
 Compute Stats, Diag. #    204  OLRCLR    vol(   0 ): 5.099E+14  Parms: SM      U1      
 Compute Stats, Diag. #    248  SWGCLR    vol(   0 ): 7.648E+15  Parms: SM      L1      
 Compute Stats, Diag. #    205  LWGCLR    vol(   0 ): 7.648E+15  Parms: SM      L1      
(PID.TID 0000.0001) Did not write pickup because writePickupAtEnd = FALSE
(PID.TID 0000.0001)  Seconds in section "ALL                    [THE_MODEL_MAIN]":
(PID.TID 0000.0001)          User time:   121.2999954223633
(PID.TID 0000.0001)        System time:   7.969999790191650
(PID.TID 0000.0001)    Wall clock time:   146.6309490203857
(PID.TID 0000.0001)         No. starts:           1
(PID.TID 0000.0001)          No. stops:           1
(PID.TID 0000.0001)  Seconds in section "INITIALISE_FIXED       [THE_MODEL_MAIN]":
(PID.TID 0000.0001)          User time:  0.7699999809265137
(PID.TID 0000.0001)        System time:  0.2199999988079071
(PID.TID 0000.0001)    Wall clock time:   1.856350898742676
(PID.TID 0000.0001)         No. starts:           1
(PID.TID 0000.0001)          No. stops:           1
(PID.TID 0000.0001)  Seconds in section "GRIDALT_INITIALISE  [PACKAGES_INIT_F]":
(PID.TID 0000.0001)          User time:  3.0000001192092896E-002
(PID.TID 0000.0001)        System time:  0.0000000000000000E+000
(PID.TID 0000.0001)    Wall clock time:  3.1134128570556641E-002
(PID.TID 0000.0001)         No. starts:           1
(PID.TID 0000.0001)          No. stops:           1
(PID.TID 0000.0001)  Seconds in section "THE_MAIN_LOOP          [THE_MODEL_MAIN]":
(PID.TID 0000.0001)          User time:   120.5200009346008
(PID.TID 0000.0001)        System time:   7.749999791383743
(PID.TID 0000.0001)    Wall clock time:   144.7685708999634
(PID.TID 0000.0001)         No. starts:           1
(PID.TID 0000.0001)          No. stops:           1
(PID.TID 0000.0001)  Seconds in section "INITIALISE_VARIA    [THE_MAIN_LOOP]":
(PID.TID 0000.0001)          User time:   1.420000076293945
(PID.TID 0000.0001)        System time:  0.4600000083446503
(PID.TID 0000.0001)    Wall clock time:   2.920969009399414
(PID.TID 0000.0001)         No. starts:           1
(PID.TID 0000.0001)          No. stops:           1
(PID.TID 0000.0001)  Seconds in section "GRIDALT_UPDATE  [INITIALISE_VARIA]":
(PID.TID 0000.0001)          User time:  9.9999904632568359E-003
(PID.TID 0000.0001)        System time:  0.0000000000000000E+000
(PID.TID 0000.0001)    Wall clock time:  8.9211463928222656E-003
(PID.TID 0000.0001)         No. starts:           1
(PID.TID 0000.0001)          No. stops:           1
(PID.TID 0000.0001)  Seconds in section "MAIN LOOP           [THE_MAIN_LOOP]":
(PID.TID 0000.0001)          User time:   119.1000008583069
(PID.TID 0000.0001)        System time:   7.289999783039093
(PID.TID 0000.0001)    Wall clock time:   141.8474540710449
(PID.TID 0000.0001)         No. starts:           1
(PID.TID 0000.0001)          No. stops:           1
(PID.TID 0000.0001)  Seconds in section "FORWARD_STEP        [THE_MAIN_LOOP]":
(PID.TID 0000.0001)          User time:   119.1000008583069
(PID.TID 0000.0001)        System time:   7.289999783039093
(PID.TID 0000.0001)    Wall clock time:   141.8466606140137
(PID.TID 0000.0001)         No. starts:          15
(PID.TID 0000.0001)          No. stops:          15
(PID.TID 0000.0001)  Seconds in section "DO_STATEVARS_DIAGS  [FORWARD_STEP]":
(PID.TID 0000.0001)          User time:  1.0002136230468750E-002
(PID.TID 0000.0001)        System time:  0.0000000000000000E+000
(PID.TID 0000.0001)    Wall clock time:  8.2762241363525391E-003
(PID.TID 0000.0001)         No. starts:          45
(PID.TID 0000.0001)          No. stops:          45
(PID.TID 0000.0001)  Seconds in section "LOAD_FIELDS_DRIVER  [FORWARD_STEP]":
(PID.TID 0000.0001)          User time:  0.0000000000000000E+000
(PID.TID 0000.0001)        System time:  0.0000000000000000E+000
(PID.TID 0000.0001)    Wall clock time:  2.2017955780029297E-003
(PID.TID 0000.0001)         No. starts:          15
(PID.TID 0000.0001)          No. stops:          15
(PID.TID 0000.0001)  Seconds in section "EXTERNAL_FLDS_LOAD [LOAD_FLDS_DRIVER]":
(PID.TID 0000.0001)          User time:  0.0000000000000000E+000
(PID.TID 0000.0001)        System time:  0.0000000000000000E+000
(PID.TID 0000.0001)    Wall clock time:  7.7342987060546875E-004
(PID.TID 0000.0001)         No. starts:          15
(PID.TID 0000.0001)          No. stops:          15
(PID.TID 0000.0001)  Seconds in section "DO_ATMOSPHERIC_PHYS [FORWARD_STEP]":
(PID.TID 0000.0001)          User time:   87.96000146865845
(PID.TID 0000.0001)        System time:   6.990000069141388
(PID.TID 0000.0001)    Wall clock time:   105.5292642116547
(PID.TID 0000.0001)         No. starts:          15
(PID.TID 0000.0001)          No. stops:          15
(PID.TID 0000.0001)  Seconds in section "FIZHI          [DO_ATMOSPHERIC_PHYS]":
(PID.TID 0000.0001)          User time:   87.95000696182251
(PID.TID 0000.0001)        System time:   6.990000069141388
(PID.TID 0000.0001)    Wall clock time:   105.5278031826019
(PID.TID 0000.0001)         No. starts:          15
(PID.TID 0000.0001)          No. stops:          15
(PID.TID 0000.0001)  Seconds in section "DO_FIZHI          [FIZHI_WRAPPER]":
(PID.TID 0000.0001)          User time:   83.85000276565552
(PID.TID 0000.0001)        System time:   6.949999630451202
(PID.TID 0000.0001)    Wall clock time:   100.8159527778625
(PID.TID 0000.0001)         No. starts:          15
(PID.TID 0000.0001)          No. stops:          15
(PID.TID 0000.0001)  Seconds in section "PHYS2DYN          [FIZHI_WRAPPER]":
(PID.TID 0000.0001)          User time:   1.629997253417969
(PID.TID 0000.0001)        System time:  1.0000228881835938E-002
(PID.TID 0000.0001)    Wall clock time:   1.909822463989258
(PID.TID 0000.0001)         No. starts:          15
(PID.TID 0000.0001)          No. stops:          15
(PID.TID 0000.0001)  Seconds in section "ATOC              [FIZHI_WRAPPER]":
(PID.TID 0000.0001)          User time:  0.6300010681152344
(PID.TID 0000.0001)        System time:  0.0000000000000000E+000
(PID.TID 0000.0001)    Wall clock time:  0.7253940105438232
(PID.TID 0000.0001)         No. starts:          15
(PID.TID 0000.0001)          No. stops:          15
(PID.TID 0000.0001)  Seconds in section "EXCHANGES         [FIZHI_WRAPPER]":
(PID.TID 0000.0001)          User time:  0.5400009155273438
(PID.TID 0000.0001)        System time:  1.0000228881835938E-002
(PID.TID 0000.0001)    Wall clock time:  0.5811500549316406
(PID.TID 0000.0001)         No. starts:          15
(PID.TID 0000.0001)          No. stops:          15
(PID.TID 0000.0001)  Seconds in section "DO_OCEANIC_PHYS     [FORWARD_STEP]":
(PID.TID 0000.0001)          User time:  0.0000000000000000E+000
(PID.TID 0000.0001)        System time:  0.0000000000000000E+000
(PID.TID 0000.0001)    Wall clock time:  7.5268745422363281E-004
(PID.TID 0000.0001)         No. starts:          15
(PID.TID 0000.0001)          No. stops:          15
(PID.TID 0000.0001)  Seconds in section "DYNAMICS            [FORWARD_STEP]":
(PID.TID 0000.0001)          User time:   6.469989776611328
(PID.TID 0000.0001)        System time:  1.9999980926513672E-002
(PID.TID 0000.0001)    Wall clock time:   7.200916051864624
(PID.TID 0000.0001)         No. starts:          15
(PID.TID 0000.0001)          No. stops:          15
(PID.TID 0000.0001)  Seconds in section "UPDATE_R_STAR       [FORWARD_STEP]":
(PID.TID 0000.0001)          User time:  0.4999961853027344
(PID.TID 0000.0001)        System time:  0.0000000000000000E+000
(PID.TID 0000.0001)    Wall clock time:  0.5894167423248291
(PID.TID 0000.0001)         No. starts:          15
(PID.TID 0000.0001)          No. stops:          15
(PID.TID 0000.0001)  Seconds in section "UPDATE_CG2D         [FORWARD_STEP]":
(PID.TID 0000.0001)          User time:  0.2200126647949219
(PID.TID 0000.0001)        System time:  0.0000000000000000E+000
(PID.TID 0000.0001)    Wall clock time:  0.1791663169860840
(PID.TID 0000.0001)         No. starts:          15
(PID.TID 0000.0001)          No. stops:          15
(PID.TID 0000.0001)  Seconds in section "SOLVE_FOR_PRESSURE  [FORWARD_STEP]":
(PID.TID 0000.0001)          User time:  0.4599990844726563
(PID.TID 0000.0001)        System time:  9.9997520446777344E-003
(PID.TID 0000.0001)    Wall clock time:  0.5280008316040039
(PID.TID 0000.0001)         No. starts:          15
(PID.TID 0000.0001)          No. stops:          15
(PID.TID 0000.0001)  Seconds in section "MOM_CORRECTION_STEP [FORWARD_STEP]":
(PID.TID 0000.0001)          User time:   5.139995574951172
(PID.TID 0000.0001)        System time:  1.0000228881835938E-002
(PID.TID 0000.0001)    Wall clock time:   5.797551393508911
(PID.TID 0000.0001)         No. starts:          15
(PID.TID 0000.0001)          No. stops:          15
(PID.TID 0000.0001)  Seconds in section "SHAP_FILT_UV       [MOM_CORR_STEP]":
(PID.TID 0000.0001)          User time:   4.520011901855469
(PID.TID 0000.0001)        System time:  1.0000228881835938E-002
(PID.TID 0000.0001)    Wall clock time:   5.076747417449951
(PID.TID 0000.0001)         No. starts:          15
(PID.TID 0000.0001)          No. stops:          15
(PID.TID 0000.0001)  Seconds in section "UPDATE_ETAH         [FORWARD_STEP]":
(PID.TID 0000.0001)          User time:  0.0000000000000000E+000
(PID.TID 0000.0001)        System time:  0.0000000000000000E+000
(PID.TID 0000.0001)    Wall clock time:  4.5046806335449219E-003
(PID.TID 0000.0001)         No. starts:          15
(PID.TID 0000.0001)          No. stops:          15
(PID.TID 0000.0001)  Seconds in section "CALC_R_STAR         [FORWARD_STEP]":
(PID.TID 0000.0001)          User time:  6.0009002685546875E-002
(PID.TID 0000.0001)        System time:  0.0000000000000000E+000
(PID.TID 0000.0001)    Wall clock time:  7.1032762527465820E-002
(PID.TID 0000.0001)         No. starts:          15
(PID.TID 0000.0001)          No. stops:          15
(PID.TID 0000.0001)  Seconds in section "BLOCKING_EXCHANGES  [FORWARD_STEP]":
(PID.TID 0000.0001)          User time:  0.6699943542480469
(PID.TID 0000.0001)        System time:  0.0000000000000000E+000
(PID.TID 0000.0001)    Wall clock time:  0.6979403495788574
(PID.TID 0000.0001)         No. starts:          30
(PID.TID 0000.0001)          No. stops:          30
(PID.TID 0000.0001)  Seconds in section "THERMODYNAMICS      [FORWARD_STEP]":
(PID.TID 0000.0001)          User time:   3.790008544921875
(PID.TID 0000.0001)        System time:  1.9999742507934570E-002
(PID.TID 0000.0001)    Wall clock time:   4.271866798400879
(PID.TID 0000.0001)         No. starts:          15
(PID.TID 0000.0001)          No. stops:          15
(PID.TID 0000.0001)  Seconds in section "TRC_CORRECTION_STEP [FORWARD_STEP]":
(PID.TID 0000.0001)          User time:   3.199985504150391
(PID.TID 0000.0001)        System time:  9.9997520446777344E-003
(PID.TID 0000.0001)    Wall clock time:   3.735616683959961
(PID.TID 0000.0001)         No. starts:          15
(PID.TID 0000.0001)          No. stops:          15
(PID.TID 0000.0001)  Seconds in section "SHAP_FILT_TS       [TRC_CORR_STEP]":
(PID.TID 0000.0001)          User time:   3.099994659423828
(PID.TID 0000.0001)        System time:  9.9997520446777344E-003
(PID.TID 0000.0001)    Wall clock time:   3.618487834930420
(PID.TID 0000.0001)         No. starts:          15
(PID.TID 0000.0001)          No. stops:          15
(PID.TID 0000.0001)  Seconds in section "FIZHI               [FORWARD_STEP]":
(PID.TID 0000.0001)          User time:   6.139995574951172
(PID.TID 0000.0001)        System time:  5.0000667572021484E-002
(PID.TID 0000.0001)    Wall clock time:   6.867002487182617
(PID.TID 0000.0001)         No. starts:          15
(PID.TID 0000.0001)          No. stops:          15
(PID.TID 0000.0001)  Seconds in section "PHYS2DYN          [STEP_FIZHI_CORR]":
(PID.TID 0000.0001)          User time:   1.500003814697266
(PID.TID 0000.0001)        System time:  9.9999904632568359E-003
(PID.TID 0000.0001)    Wall clock time:   1.672594070434570
(PID.TID 0000.0001)         No. starts:          15
(PID.TID 0000.0001)          No. stops:          15
(PID.TID 0000.0001)  Seconds in section "ATOC              [STEP_FIZHI_CORR]":
(PID.TID 0000.0001)          User time:  0.6699943542480469
(PID.TID 0000.0001)        System time:  0.0000000000000000E+000
(PID.TID 0000.0001)    Wall clock time:  0.7158741950988770
(PID.TID 0000.0001)         No. starts:          15
(PID.TID 0000.0001)          No. stops:          15
(PID.TID 0000.0001)  Seconds in section "CTOA              [STEP_FIZHI_CORR]":
(PID.TID 0000.0001)          User time:  0.6200027465820313
(PID.TID 0000.0001)        System time:  0.0000000000000000E+000
(PID.TID 0000.0001)    Wall clock time:  0.6638875007629395
(PID.TID 0000.0001)         No. starts:          15
(PID.TID 0000.0001)          No. stops:          15
(PID.TID 0000.0001)  Seconds in section "DYN2PHYS          [STEP_FIZHI_CORR]":
(PID.TID 0000.0001)          User time:   2.170005798339844
(PID.TID 0000.0001)        System time:  2.0000219345092773E-002
(PID.TID 0000.0001)    Wall clock time:   2.517037153244019
(PID.TID 0000.0001)         No. starts:          15
(PID.TID 0000.0001)          No. stops:          15
(PID.TID 0000.0001)  Seconds in section "DO_STATEVARS_TAVE   [FORWARD_STEP]":
(PID.TID 0000.0001)          User time:  0.0000000000000000E+000
(PID.TID 0000.0001)        System time:  0.0000000000000000E+000
(PID.TID 0000.0001)    Wall clock time:  7.5244903564453125E-004
(PID.TID 0000.0001)         No. starts:          15
(PID.TID 0000.0001)          No. stops:          15
(PID.TID 0000.0001)  Seconds in section "MONITOR             [FORWARD_STEP]":
(PID.TID 0000.0001)          User time:   3.650009155273438
(PID.TID 0000.0001)        System time:  2.9999494552612305E-002
(PID.TID 0000.0001)    Wall clock time:   4.094624280929565
(PID.TID 0000.0001)         No. starts:          15
(PID.TID 0000.0001)          No. stops:          15
(PID.TID 0000.0001)  Seconds in section "DO_THE_MODEL_IO     [FORWARD_STEP]":
(PID.TID 0000.0001)          User time:  0.7400054931640625
(PID.TID 0000.0001)        System time:  0.1500000953674316
(PID.TID 0000.0001)    Wall clock time:   2.148769140243530
(PID.TID 0000.0001)         No. starts:          15
(PID.TID 0000.0001)          No. stops:          15
(PID.TID 0000.0001)  Seconds in section "DO_WRITE_PICKUP     [FORWARD_STEP]":
(PID.TID 0000.0001)          User time:  0.0000000000000000E+000
(PID.TID 0000.0001)        System time:  0.0000000000000000E+000
(PID.TID 0000.0001)    Wall clock time:  2.6490688323974609E-003
(PID.TID 0000.0001)         No. starts:          15
(PID.TID 0000.0001)          No. stops:          15
(PID.TID 0000.0001) // ======================================================
(PID.TID 0000.0001) // Tile <-> Tile communication statistics
(PID.TID 0000.0001) // ======================================================
(PID.TID 0000.0001) // o Tile number: 000001
(PID.TID 0000.0001) //         No. X exchanges =              0
(PID.TID 0000.0001) //            Max. X spins =              0
(PID.TID 0000.0001) //            Min. X spins =     1000000000
(PID.TID 0000.0001) //          Total. X spins =              0
(PID.TID 0000.0001) //            Avg. X spins =       0.00E+00
(PID.TID 0000.0001) //         No. Y exchanges =              0
(PID.TID 0000.0001) //            Max. Y spins =              0
(PID.TID 0000.0001) //            Min. Y spins =     1000000000
(PID.TID 0000.0001) //          Total. Y spins =              0
(PID.TID 0000.0001) //            Avg. Y spins =       0.00E+00
(PID.TID 0000.0001) // o Tile number: 000002
(PID.TID 0000.0001) //         No. X exchanges =              0
(PID.TID 0000.0001) //            Max. X spins =              0
(PID.TID 0000.0001) //            Min. X spins =     1000000000
(PID.TID 0000.0001) //          Total. X spins =              0
(PID.TID 0000.0001) //            Avg. X spins =       0.00E+00
(PID.TID 0000.0001) //         No. Y exchanges =              0
(PID.TID 0000.0001) //            Max. Y spins =              0
(PID.TID 0000.0001) //            Min. Y spins =     1000000000
(PID.TID 0000.0001) //          Total. Y spins =              0
(PID.TID 0000.0001) //            Avg. Y spins =       0.00E+00
(PID.TID 0000.0001) // o Tile number: 000003
(PID.TID 0000.0001) //         No. X exchanges =              0
(PID.TID 0000.0001) //            Max. X spins =              0
(PID.TID 0000.0001) //            Min. X spins =     1000000000
(PID.TID 0000.0001) //          Total. X spins =              0
(PID.TID 0000.0001) //            Avg. X spins =       0.00E+00
(PID.TID 0000.0001) //         No. Y exchanges =              0
(PID.TID 0000.0001) //            Max. Y spins =              0
(PID.TID 0000.0001) //            Min. Y spins =     1000000000
(PID.TID 0000.0001) //          Total. Y spins =              0
(PID.TID 0000.0001) //            Avg. Y spins =       0.00E+00
(PID.TID 0000.0001) // o Tile number: 000004
(PID.TID 0000.0001) //         No. X exchanges =              0
(PID.TID 0000.0001) //            Max. X spins =              0
(PID.TID 0000.0001) //            Min. X spins =     1000000000
(PID.TID 0000.0001) //          Total. X spins =              0
(PID.TID 0000.0001) //            Avg. X spins =       0.00E+00
(PID.TID 0000.0001) //         No. Y exchanges =              0
(PID.TID 0000.0001) //            Max. Y spins =              0
(PID.TID 0000.0001) //            Min. Y spins =     1000000000
(PID.TID 0000.0001) //          Total. Y spins =              0
(PID.TID 0000.0001) //            Avg. Y spins =       0.00E+00
(PID.TID 0000.0001) // o Tile number: 000005
(PID.TID 0000.0001) //         No. X exchanges =              0
(PID.TID 0000.0001) //            Max. X spins =              0
(PID.TID 0000.0001) //            Min. X spins =     1000000000
(PID.TID 0000.0001) //          Total. X spins =              0
(PID.TID 0000.0001) //            Avg. X spins =       0.00E+00
(PID.TID 0000.0001) //         No. Y exchanges =              0
(PID.TID 0000.0001) //            Max. Y spins =              0
(PID.TID 0000.0001) //            Min. Y spins =     1000000000
(PID.TID 0000.0001) //          Total. Y spins =              0
(PID.TID 0000.0001) //            Avg. Y spins =       0.00E+00
(PID.TID 0000.0001) // o Tile number: 000006
(PID.TID 0000.0001) //         No. X exchanges =              0
(PID.TID 0000.0001) //            Max. X spins =              0
(PID.TID 0000.0001) //            Min. X spins =     1000000000
(PID.TID 0000.0001) //          Total. X spins =              0
(PID.TID 0000.0001) //            Avg. X spins =       0.00E+00
(PID.TID 0000.0001) //         No. Y exchanges =              0
(PID.TID 0000.0001) //            Max. Y spins =              0
(PID.TID 0000.0001) //            Min. Y spins =     1000000000
(PID.TID 0000.0001) //          Total. Y spins =              0
(PID.TID 0000.0001) //            Avg. Y spins =       0.00E+00
(PID.TID 0000.0001) // o Thread number: 000001
(PID.TID 0000.0001) //            No. barriers =           5556
(PID.TID 0000.0001) //      Max. barrier spins =              1
(PID.TID 0000.0001) //      Min. barrier spins =              1
(PID.TID 0000.0001) //     Total barrier spins =           5556
(PID.TID 0000.0001) //      Avg. barrier spins =       1.00E+00
