(PID.TID 0000.0001) 
(PID.TID 0000.0001) // ======================================================
(PID.TID 0000.0001) //                      MITgcm UV
(PID.TID 0000.0001) //                      =========
(PID.TID 0000.0001) // ======================================================
(PID.TID 0000.0001) // execution environment starting up...
(PID.TID 0000.0001) 
(PID.TID 0000.0001) // MITgcmUV version:  checkpoint58m_post
(PID.TID 0000.0001) // Build user:        molod
(PID.TID 0000.0001) // Build host:        hemmingway
(PID.TID 0000.0001) // Build date:        Fri Aug  4 15:40:02 EDT 2006
(PID.TID 0000.0001) 
(PID.TID 0000.0001) // =======================================================
(PID.TID 0000.0001) // Execution Environment parameter file "eedata"
(PID.TID 0000.0001) // =======================================================
(PID.TID 0000.0001) ># Example "eedata" file
(PID.TID 0000.0001) ># Lines beginning "#" are comments
(PID.TID 0000.0001) ># nTx - No. threads per process in X
(PID.TID 0000.0001) ># nTy - No. threads per process in Y
(PID.TID 0000.0001) > &EEPARMS
(PID.TID 0000.0001) > useCubedSphereExchange=.TRUE.,
(PID.TID 0000.0001) ># unlimit the stack size for the FIZHI rad code
(PID.TID 0000.0001) >#EH3  useSETRLSTK is commented out (default: false) since, with the g77
(PID.TID 0000.0001) >#EH3  compiler, it causes the model to hang *without* returning -- thus
(PID.TID 0000.0001) >#EH3  killing all our automated g77 testing on, for instance, the ACES
(PID.TID 0000.0001) >#EH3  cluster.
(PID.TID 0000.0001) >#EH3  useSETRLSTK=.TRUE.,
(PID.TID 0000.0001) ># Activate one line below to support 2, 3 or 6 way multi-threading
(PID.TID 0000.0001) >#nTx=2,
(PID.TID 0000.0001) >#nTx=3,
(PID.TID 0000.0001) >#nTx=6,
(PID.TID 0000.0001) > &
(PID.TID 0000.0001) ># Note: Some systems use & as the
(PID.TID 0000.0001) ># namelist terminator. Other systems
(PID.TID 0000.0001) ># use a / character (as shown here).
(PID.TID 0000.0001) 
(PID.TID 0000.0001) // =======================================================
(PID.TID 0000.0001) // Computational Grid Specification ( see files "SIZE.h" )
(PID.TID 0000.0001) //                                  ( and "eedata"       )
(PID.TID 0000.0001) // =======================================================
(PID.TID 0000.0001)      nPx =    1 ; /* No. processes in X */
(PID.TID 0000.0001)      nPy =    1 ; /* No. processes in Y */
(PID.TID 0000.0001)      nSx =    6 ; /* No. tiles in X per process */
(PID.TID 0000.0001)      nSy =    1 ; /* No. tiles in Y per process */
(PID.TID 0000.0001)      sNx =   32 ; /* Tile size in X */
(PID.TID 0000.0001)      sNy =   32 ; /* Tile size in Y */
(PID.TID 0000.0001)      OLx =    2 ; /* Tile overlap distance in X */
(PID.TID 0000.0001)      OLy =    2 ; /* Tile overlap distance in Y */
(PID.TID 0000.0001)      nTx =    1 ; /* No. threads in X per process */
(PID.TID 0000.0001)      nTy =    1 ; /* No. threads in Y per process */
(PID.TID 0000.0001)       Nr =   20 ; /* No. levels in the vertical   */
(PID.TID 0000.0001)       nX =  192 ; /* Total domain size in X ( = nPx*nSx*sNx ) */
(PID.TID 0000.0001)       nY =   32 ; /* Total domain size in Y ( = nPy*nSy*sNy ) */
(PID.TID 0000.0001)   nTiles =    6 ; /* Total no. tiles per process ( = nSx*nSy ) */
(PID.TID 0000.0001)   nProcs =    1 ; /* Total no. processes ( = nPx*nPy ) */
(PID.TID 0000.0001) nThreads =    1 ; /* Total no. threads per process ( = nTx*nTy ) */
(PID.TID 0000.0001) usingMPI =    F ; /* Flag used to control whether MPI is in use */
(PID.TID 0000.0001)                   /*  note: To execute a program with MPI calls */
(PID.TID 0000.0001)                   /*  it must be launched appropriately e.g     */
(PID.TID 0000.0001)                   /*  "mpirun -np 64 ......"                    */
(PID.TID 0000.0001) useCoupler=   F ; /* Flag used to control communications with */
(PID.TID 0000.0001)                   /*  other model components, through a coupler */
(PID.TID 0000.0001) 
(PID.TID 0000.0001) // ======================================================
(PID.TID 0000.0001) // Mapping of tiles to threads
(PID.TID 0000.0001) // ======================================================
(PID.TID 0000.0001) // -o- Thread   1, tiles (   1:   6,   1:   1)
(PID.TID 0000.0001) 
(PID.TID 0000.0001) // ======================================================
(PID.TID 0000.0001) // Tile <-> Tile connectvity table
(PID.TID 0000.0001) // ======================================================
(PID.TID 0000.0001) // Tile number: 000001 (process no. = 000001)
(PID.TID 0000.0001) //        WEST: Tile = 000006, Process = 000001, Comm = put
(PID.TID 0000.0001) //                bi = 000006, bj = 000001
(PID.TID 0000.0001) //        EAST: Tile = 000002, Process = 000001, Comm = put
(PID.TID 0000.0001) //                bi = 000002, bj = 000001
(PID.TID 0000.0001) //       SOUTH: Tile = 000001, Process = 000001, Comm = put
(PID.TID 0000.0001) //                bi = 000001, bj = 000001
(PID.TID 0000.0001) //       NORTH: Tile = 000001, Process = 000001, Comm = put
(PID.TID 0000.0001) //                bi = 000001, bj = 000001
(PID.TID 0000.0001) // Tile number: 000002 (process no. = 000001)
(PID.TID 0000.0001) //        WEST: Tile = 000001, Process = 000001, Comm = put
(PID.TID 0000.0001) //                bi = 000001, bj = 000001
(PID.TID 0000.0001) //        EAST: Tile = 000003, Process = 000001, Comm = put
(PID.TID 0000.0001) //                bi = 000003, bj = 000001
(PID.TID 0000.0001) //       SOUTH: Tile = 000002, Process = 000001, Comm = put
(PID.TID 0000.0001) //                bi = 000002, bj = 000001
(PID.TID 0000.0001) //       NORTH: Tile = 000002, Process = 000001, Comm = put
(PID.TID 0000.0001) //                bi = 000002, bj = 000001
(PID.TID 0000.0001) // Tile number: 000003 (process no. = 000001)
(PID.TID 0000.0001) //        WEST: Tile = 000002, Process = 000001, Comm = put
(PID.TID 0000.0001) //                bi = 000002, bj = 000001
(PID.TID 0000.0001) //        EAST: Tile = 000004, Process = 000001, Comm = put
(PID.TID 0000.0001) //                bi = 000004, bj = 000001
(PID.TID 0000.0001) //       SOUTH: Tile = 000003, Process = 000001, Comm = put
(PID.TID 0000.0001) //                bi = 000003, bj = 000001
(PID.TID 0000.0001) //       NORTH: Tile = 000003, Process = 000001, Comm = put
(PID.TID 0000.0001) //                bi = 000003, bj = 000001
(PID.TID 0000.0001) // Tile number: 000004 (process no. = 000001)
(PID.TID 0000.0001) //        WEST: Tile = 000003, Process = 000001, Comm = put
(PID.TID 0000.0001) //                bi = 000003, bj = 000001
(PID.TID 0000.0001) //        EAST: Tile = 000005, Process = 000001, Comm = put
(PID.TID 0000.0001) //                bi = 000005, bj = 000001
(PID.TID 0000.0001) //       SOUTH: Tile = 000004, Process = 000001, Comm = put
(PID.TID 0000.0001) //                bi = 000004, bj = 000001
(PID.TID 0000.0001) //       NORTH: Tile = 000004, Process = 000001, Comm = put
(PID.TID 0000.0001) //                bi = 000004, bj = 000001
(PID.TID 0000.0001) // Tile number: 000005 (process no. = 000001)
(PID.TID 0000.0001) //        WEST: Tile = 000004, Process = 000001, Comm = put
(PID.TID 0000.0001) //                bi = 000004, bj = 000001
(PID.TID 0000.0001) //        EAST: Tile = 000006, Process = 000001, Comm = put
(PID.TID 0000.0001) //                bi = 000006, bj = 000001
(PID.TID 0000.0001) //       SOUTH: Tile = 000005, Process = 000001, Comm = put
(PID.TID 0000.0001) //                bi = 000005, bj = 000001
(PID.TID 0000.0001) //       NORTH: Tile = 000005, Process = 000001, Comm = put
(PID.TID 0000.0001) //                bi = 000005, bj = 000001
(PID.TID 0000.0001) // Tile number: 000006 (process no. = 000001)
(PID.TID 0000.0001) //        WEST: Tile = 000005, Process = 000001, Comm = put
(PID.TID 0000.0001) //                bi = 000005, bj = 000001
(PID.TID 0000.0001) //        EAST: Tile = 000001, Process = 000001, Comm = put
(PID.TID 0000.0001) //                bi = 000001, bj = 000001
(PID.TID 0000.0001) //       SOUTH: Tile = 000006, Process = 000001, Comm = put
(PID.TID 0000.0001) //                bi = 000006, bj = 000001
(PID.TID 0000.0001) //       NORTH: Tile = 000006, Process = 000001, Comm = put
(PID.TID 0000.0001) //                bi = 000006, bj = 000001
(PID.TID 0000.0001) 
(PID.TID 0000.0001) ===== W2 TILE TOPLOGY =====
(PID.TID 0000.0001)  TILE:    1
(PID.TID 0000.0001)       NEIGHBOUR    1 = TILE    3 Comm = PUT ( PROC =    1)
(PID.TID 0000.0001)       NEIGHBOUR    2 = TILE    6 Comm = PUT ( PROC =    1)
(PID.TID 0000.0001)       NEIGHBOUR    3 = TILE    2 Comm = PUT ( PROC =    1)
(PID.TID 0000.0001)       NEIGHBOUR    4 = TILE    5 Comm = PUT ( PROC =    1)
(PID.TID 0000.0001)  TILE:    2
(PID.TID 0000.0001)       NEIGHBOUR    1 = TILE    3 Comm = PUT ( PROC =    1)
(PID.TID 0000.0001)       NEIGHBOUR    2 = TILE    6 Comm = PUT ( PROC =    1)
(PID.TID 0000.0001)       NEIGHBOUR    3 = TILE    4 Comm = PUT ( PROC =    1)
(PID.TID 0000.0001)       NEIGHBOUR    4 = TILE    1 Comm = PUT ( PROC =    1)
(PID.TID 0000.0001)  TILE:    3
(PID.TID 0000.0001)       NEIGHBOUR    1 = TILE    5 Comm = PUT ( PROC =    1)
(PID.TID 0000.0001)       NEIGHBOUR    2 = TILE    2 Comm = PUT ( PROC =    1)
(PID.TID 0000.0001)       NEIGHBOUR    3 = TILE    4 Comm = PUT ( PROC =    1)
(PID.TID 0000.0001)       NEIGHBOUR    4 = TILE    1 Comm = PUT ( PROC =    1)
(PID.TID 0000.0001)  TILE:    4
(PID.TID 0000.0001)       NEIGHBOUR    1 = TILE    5 Comm = PUT ( PROC =    1)
(PID.TID 0000.0001)       NEIGHBOUR    2 = TILE    2 Comm = PUT ( PROC =    1)
(PID.TID 0000.0001)       NEIGHBOUR    3 = TILE    6 Comm = PUT ( PROC =    1)
(PID.TID 0000.0001)       NEIGHBOUR    4 = TILE    3 Comm = PUT ( PROC =    1)
(PID.TID 0000.0001)  TILE:    5
(PID.TID 0000.0001)       NEIGHBOUR    1 = TILE    1 Comm = PUT ( PROC =    1)
(PID.TID 0000.0001)       NEIGHBOUR    2 = TILE    4 Comm = PUT ( PROC =    1)
(PID.TID 0000.0001)       NEIGHBOUR    3 = TILE    6 Comm = PUT ( PROC =    1)
(PID.TID 0000.0001)       NEIGHBOUR    4 = TILE    3 Comm = PUT ( PROC =    1)
(PID.TID 0000.0001)  TILE:    6
(PID.TID 0000.0001)       NEIGHBOUR    1 = TILE    1 Comm = PUT ( PROC =    1)
(PID.TID 0000.0001)       NEIGHBOUR    2 = TILE    4 Comm = PUT ( PROC =    1)
(PID.TID 0000.0001)       NEIGHBOUR    3 = TILE    2 Comm = PUT ( PROC =    1)
(PID.TID 0000.0001)       NEIGHBOUR    4 = TILE    5 Comm = PUT ( PROC =    1)
(PID.TID 0000.0001) Tile    1(proc =   1) sends points i=  34:  -1, j=  31:  32
(PID.TID 0000.0001)                          to points i=  -1:   0, j=  -1:  34 in tile    3(proc =   1)
(PID.TID 0000.0001) Tile    1(proc =   1) sends points i=  -1:  34, j=   1:   2
(PID.TID 0000.0001)                          to points i=  -1:  34, j=  33:  34 in tile    6(proc =   1)
(PID.TID 0000.0001) Tile    1(proc =   1) sends points i=  31:  32, j=  -1:  34
(PID.TID 0000.0001)                          to points i=  -1:   0, j=  -1:  34 in tile    2(proc =   1)
(PID.TID 0000.0001) Tile    1(proc =   1) sends points i=   1:   2, j=  34:  -1
(PID.TID 0000.0001)                          to points i=  -1:  34, j=  33:  34 in tile    5(proc =   1)
(PID.TID 0000.0001) Tile    2(proc =   1) sends points i=  -1:  34, j=  31:  32
(PID.TID 0000.0001)                          to points i=  -1:  34, j=  -1:   0 in tile    3(proc =   1)
(PID.TID 0000.0001) Tile    2(proc =   1) sends points i=  34:  -1, j=   1:   2
(PID.TID 0000.0001)                          to points i=  33:  34, j=  -1:  34 in tile    6(proc =   1)
(PID.TID 0000.0001) Tile    2(proc =   1) sends points i=  31:  32, j=  34:  -1
(PID.TID 0000.0001)                          to points i=  -1:  34, j=  -1:   0 in tile    4(proc =   1)
(PID.TID 0000.0001) Tile    2(proc =   1) sends points i=   1:   2, j=  -1:  34
(PID.TID 0000.0001)                          to points i=  33:  34, j=  -1:  34 in tile    1(proc =   1)
(PID.TID 0000.0001) Tile    3(proc =   1) sends points i=  34:  -1, j=  31:  32
(PID.TID 0000.0001)                          to points i=  -1:   0, j=  -1:  34 in tile    5(proc =   1)
(PID.TID 0000.0001) Tile    3(proc =   1) sends points i=  -1:  34, j=   1:   2
(PID.TID 0000.0001)                          to points i=  -1:  34, j=  33:  34 in tile    2(proc =   1)
(PID.TID 0000.0001) Tile    3(proc =   1) sends points i=  31:  32, j=  -1:  34
(PID.TID 0000.0001)                          to points i=  -1:   0, j=  -1:  34 in tile    4(proc =   1)
(PID.TID 0000.0001) Tile    3(proc =   1) sends points i=   1:   2, j=  34:  -1
(PID.TID 0000.0001)                          to points i=  -1:  34, j=  33:  34 in tile    1(proc =   1)
(PID.TID 0000.0001) Tile    4(proc =   1) sends points i=  -1:  34, j=  31:  32
(PID.TID 0000.0001)                          to points i=  -1:  34, j=  -1:   0 in tile    5(proc =   1)
(PID.TID 0000.0001) Tile    4(proc =   1) sends points i=  34:  -1, j=   1:   2
(PID.TID 0000.0001)                          to points i=  33:  34, j=  -1:  34 in tile    2(proc =   1)
(PID.TID 0000.0001) Tile    4(proc =   1) sends points i=  31:  32, j=  34:  -1
(PID.TID 0000.0001)                          to points i=  -1:  34, j=  -1:   0 in tile    6(proc =   1)
(PID.TID 0000.0001) Tile    4(proc =   1) sends points i=   1:   2, j=  -1:  34
(PID.TID 0000.0001)                          to points i=  33:  34, j=  -1:  34 in tile    3(proc =   1)
(PID.TID 0000.0001) Tile    5(proc =   1) sends points i=  34:  -1, j=  31:  32
(PID.TID 0000.0001)                          to points i=  -1:   0, j=  -1:  34 in tile    1(proc =   1)
(PID.TID 0000.0001) Tile    5(proc =   1) sends points i=  -1:  34, j=   1:   2
(PID.TID 0000.0001)                          to points i=  -1:  34, j=  33:  34 in tile    4(proc =   1)
(PID.TID 0000.0001) Tile    5(proc =   1) sends points i=  31:  32, j=  -1:  34
(PID.TID 0000.0001)                          to points i=  -1:   0, j=  -1:  34 in tile    6(proc =   1)
(PID.TID 0000.0001) Tile    5(proc =   1) sends points i=   1:   2, j=  34:  -1
(PID.TID 0000.0001)                          to points i=  -1:  34, j=  33:  34 in tile    3(proc =   1)
(PID.TID 0000.0001) Tile    6(proc =   1) sends points i=  -1:  34, j=  31:  32
(PID.TID 0000.0001)                          to points i=  -1:  34, j=  -1:   0 in tile    1(proc =   1)
(PID.TID 0000.0001) Tile    6(proc =   1) sends points i=  34:  -1, j=   1:   2
(PID.TID 0000.0001)                          to points i=  33:  34, j=  -1:  34 in tile    4(proc =   1)
(PID.TID 0000.0001) Tile    6(proc =   1) sends points i=  31:  32, j=  34:  -1
(PID.TID 0000.0001)                          to points i=  -1:  34, j=  -1:   0 in tile    2(proc =   1)
(PID.TID 0000.0001) Tile    6(proc =   1) sends points i=   1:   2, j=  -1:  34
(PID.TID 0000.0001)                          to points i=  33:  34, j=  -1:  34 in tile    5(proc =   1)
(PID.TID 0000.0001) Tile    1(proc =   1)recv to points i=  -1:  34, j=  33:  34from tile   3(proc =   1)
(PID.TID 0000.0001) Tile    1(proc =   1)recv to points i=  -1:  34, j=  -1:   0from tile   6(proc =   1)
(PID.TID 0000.0001) Tile    1(proc =   1)recv to points i=  33:  34, j=  -1:  34from tile   2(proc =   1)
(PID.TID 0000.0001) Tile    1(proc =   1)recv to points i=  -1:   0, j=  -1:  34from tile   5(proc =   1)
(PID.TID 0000.0001) Tile    2(proc =   1)recv to points i=  -1:  34, j=  33:  34from tile   3(proc =   1)
(PID.TID 0000.0001) Tile    2(proc =   1)recv to points i=  -1:  34, j=  -1:   0from tile   6(proc =   1)
(PID.TID 0000.0001) Tile    2(proc =   1)recv to points i=  33:  34, j=  -1:  34from tile   4(proc =   1)
(PID.TID 0000.0001) Tile    2(proc =   1)recv to points i=  -1:   0, j=  -1:  34from tile   1(proc =   1)
(PID.TID 0000.0001) Tile    3(proc =   1)recv to points i=  -1:  34, j=  33:  34from tile   5(proc =   1)
(PID.TID 0000.0001) Tile    3(proc =   1)recv to points i=  -1:  34, j=  -1:   0from tile   2(proc =   1)
(PID.TID 0000.0001) Tile    3(proc =   1)recv to points i=  33:  34, j=  -1:  34from tile   4(proc =   1)
(PID.TID 0000.0001) Tile    3(proc =   1)recv to points i=  -1:   0, j=  -1:  34from tile   1(proc =   1)
(PID.TID 0000.0001) Tile    4(proc =   1)recv to points i=  -1:  34, j=  33:  34from tile   5(proc =   1)
(PID.TID 0000.0001) Tile    4(proc =   1)recv to points i=  -1:  34, j=  -1:   0from tile   2(proc =   1)
(PID.TID 0000.0001) Tile    4(proc =   1)recv to points i=  33:  34, j=  -1:  34from tile   6(proc =   1)
(PID.TID 0000.0001) Tile    4(proc =   1)recv to points i=  -1:   0, j=  -1:  34from tile   3(proc =   1)
(PID.TID 0000.0001) Tile    5(proc =   1)recv to points i=  -1:  34, j=  33:  34from tile   1(proc =   1)
(PID.TID 0000.0001) Tile    5(proc =   1)recv to points i=  -1:  34, j=  -1:   0from tile   4(proc =   1)
(PID.TID 0000.0001) Tile    5(proc =   1)recv to points i=  33:  34, j=  -1:  34from tile   6(proc =   1)
(PID.TID 0000.0001) Tile    5(proc =   1)recv to points i=  -1:   0, j=  -1:  34from tile   3(proc =   1)
(PID.TID 0000.0001) Tile    6(proc =   1)recv to points i=  -1:  34, j=  33:  34from tile   1(proc =   1)
(PID.TID 0000.0001) Tile    6(proc =   1)recv to points i=  -1:  34, j=  -1:   0from tile   4(proc =   1)
(PID.TID 0000.0001) Tile    6(proc =   1)recv to points i=  33:  34, j=  -1:  34from tile   2(proc =   1)
(PID.TID 0000.0001) Tile    6(proc =   1)recv to points i=  -1:   0, j=  -1:  34from tile   5(proc =   1)
(PID.TID 0000.0001) // =======================================================
(PID.TID 0000.0001) // Model parameter file "data"
(PID.TID 0000.0001) // =======================================================
(PID.TID 0000.0001) ># ====================
(PID.TID 0000.0001) ># | Model parameters |
(PID.TID 0000.0001) ># ====================
(PID.TID 0000.0001) >#
(PID.TID 0000.0001) ># Continuous equation parameters
(PID.TID 0000.0001) > &PARM01
(PID.TID 0000.0001) >#tRef=288.8,292.7,298.1,303.8,309.8,316.2,323.2,332.5,356.1,437.4,
(PID.TID 0000.0001) > tRef=286.0,288.0,290.0,292.0,295.0,298.0,301.0,304.0,307.0,310.0,
(PID.TID 0000.0001) >      313.0,316.0,319.5,323.0,327.5,332.0,343.0,356.0,396.0,440.0,
(PID.TID 0000.0001) >#sRef=1.0E-3,5.0E-4,1.E-4,5*1.E-6,1.E-8,1.E-9,
(PID.TID 0000.0001) > sRef=20*0.0,
(PID.TID 0000.0001) > viscAr=0.E1,
(PID.TID 0000.0001) > viscAh=0.E6,
(PID.TID 0000.0001) > viscA4=0.E17,
(PID.TID 0000.0001) > no_slip_sides=.FALSE.,
(PID.TID 0000.0001) > no_slip_bottom=.FALSE.,
(PID.TID 0000.0001) > diffKhT=0.E3,
(PID.TID 0000.0001) > diffKrT=0.,
(PID.TID 0000.0001) > diffK4T=0.E17,
(PID.TID 0000.0001) > diffKrS=0.E2,
(PID.TID 0000.0001) > diffKhS=0.E3,
(PID.TID 0000.0001) > diffK4S=0.E17,
(PID.TID 0000.0001) > buoyancyRelation='ATMOSPHERIC',
(PID.TID 0000.0001) > eosType='IDEALGAS',
(PID.TID 0000.0001) > atm_Rq=0.6078,
(PID.TID 0000.0001) >#Integr_GeoPot=2,
(PID.TID 0000.0001) > rotationPeriod=86400.,
(PID.TID 0000.0001) > gravity=9.81,
(PID.TID 0000.0001) > rhonil=1.0,
(PID.TID 0000.0001) > rhoConst=1.0,
(PID.TID 0000.0001) > rigidLid=.FALSE.,
(PID.TID 0000.0001) > implicitFreeSurface=.TRUE.,
(PID.TID 0000.0001) > exactConserv=.TRUE.,
(PID.TID 0000.0001) > uniformLin_PhiSurf=.FALSE.,
(PID.TID 0000.0001) > staggerTimeStep=.TRUE.,
(PID.TID 0000.0001) > nonHydrostatic=.FALSE.,
(PID.TID 0000.0001) > readBinaryPrec=64,
(PID.TID 0000.0001) > writeBinaryPrec=64,
(PID.TID 0000.0001) > hFacMin=0.2,
(PID.TID 0000.0001) > nonlinFreeSurf=4,
(PID.TID 0000.0001) > select_rStar=2,
(PID.TID 0000.0001) > saltAdvScheme=3,
(PID.TID 0000.0001) > vectorInvariantMomentum=.TRUE.,
(PID.TID 0000.0001) >#- here are the new things:
(PID.TID 0000.0001) > useAbsVorticity=.TRUE.,
(PID.TID 0000.0001) > SadournyCoriolis=.TRUE.,
(PID.TID 0000.0001) > selectKEscheme=3,
(PID.TID 0000.0001) > &
(PID.TID 0000.0001) >
(PID.TID 0000.0001) ># Elliptic solver parameters
(PID.TID 0000.0001) > &PARM02
(PID.TID 0000.0001) > cg2dMaxIters=200,
(PID.TID 0000.0001) >#cg2dTargetResidual=1.E-12,
(PID.TID 0000.0001) > cg2dTargetResWunit=1.E-17,
(PID.TID 0000.0001) > &
(PID.TID 0000.0001) >
(PID.TID 0000.0001) ># Time stepping parameters
(PID.TID 0000.0001) > &PARM03
(PID.TID 0000.0001) > nIter0=0,
(PID.TID 0000.0001) > nTimeSteps=7,
(PID.TID 0000.0001) >#endTime=864000.0,
(PID.TID 0000.0001) > deltaT=120.0,
(PID.TID 0000.0001) > forcing_In_AB=.FALSE.,
(PID.TID 0000.0001) > abEps=0.1,
(PID.TID 0000.0001) > cAdjFreq=0.,
(PID.TID 0000.0001) > pChkptFreq=0.0,
(PID.TID 0000.0001) > ChkptFreq=0.0,
(PID.TID 0000.0001) > dumpFreq=0.0,
(PID.TID 0000.0001) > monitorFreq=1.,
(PID.TID 0000.0001) >#monitorFreq=2678400.,
(PID.TID 0000.0001) > taveFreq=0.0,
(PID.TID 0000.0001) > tave_lastiter=1.,
(PID.TID 0000.0001) > &
(PID.TID 0000.0001) >
(PID.TID 0000.0001) ># Gridding parameters
(PID.TID 0000.0001) > &PARM04
(PID.TID 0000.0001) > usingCartesianGrid=.FALSE.,
(PID.TID 0000.0001) > usingSphericalPolarGrid=.FALSE.,
(PID.TID 0000.0001) > usingCurvilinearGrid=.TRUE.,
(PID.TID 0000.0001) > delR=20*5054.,
(PID.TID 0000.0001) > Ro_SeaLevel=101080.,
(PID.TID 0000.0001) > rSphere=6371.E3,
(PID.TID 0000.0001) > &
(PID.TID 0000.0001) >
(PID.TID 0000.0001) ># Input datasets
(PID.TID 0000.0001) > &PARM05
(PID.TID 0000.0001) >#topoFile='topo.cs.bin',
(PID.TID 0000.0001) > uVelInitFile='U.input.20Lev',
(PID.TID 0000.0001) > vVelInitFile='V.input.20Lev',
(PID.TID 0000.0001) > hydrogThetaFile='T.input.20Lev',
(PID.TID 0000.0001) > hydrogSaltFile='RH.input.20Lev',
(PID.TID 0000.0001) > &
(PID.TID 0000.0001) 
(PID.TID 0000.0001) S/R INI_PARMS ; starts to read PARM01
(PID.TID 0000.0001) S/R INI_PARMS ; read PARM01 : OK
(PID.TID 0000.0001) S/R INI_PARMS ; starts to read PARM02
(PID.TID 0000.0001) S/R INI_PARMS ; read PARM02 : OK
(PID.TID 0000.0001) S/R INI_PARMS ; starts to read PARM03
(PID.TID 0000.0001) S/R INI_PARMS ; read PARM03 : OK
(PID.TID 0000.0001) S/R INI_PARMS ; starts to read PARM04
(PID.TID 0000.0001) S/R INI_PARMS ; read PARM04 : OK
(PID.TID 0000.0001) S/R INI_PARMS ; starts to read PARM05
(PID.TID 0000.0001) S/R INI_PARMS ; read PARM05 : OK
(PID.TID 0000.0001)  PACKAGES_BOOT: opening data.pkg
(PID.TID 0000.0001)  OPEN_COPY_DATA_FILE: opening file data.pkg
(PID.TID 0000.0001) // =======================================================
(PID.TID 0000.0001) // Parameter file "data.pkg"
(PID.TID 0000.0001) // =======================================================
(PID.TID 0000.0001) ># Packages
(PID.TID 0000.0001) > &PACKAGES
(PID.TID 0000.0001) > useFIZHI=.TRUE.,
(PID.TID 0000.0001) > useGRIDALT=.TRUE.,
(PID.TID 0000.0001) > useSHAP_FILT=.TRUE.,
(PID.TID 0000.0001) > useDIAGNOSTICS=.TRUE.,
(PID.TID 0000.0001) > useMNC=.TRUE.,
(PID.TID 0000.0001) > &
(PID.TID 0000.0001) 
(PID.TID 0000.0001)  PACKAGES_BOOT: finished reading data.pkg
(PID.TID 0000.0001)  MNC_READPARMS: opening file 'data.mnc'
(PID.TID 0000.0001)  OPEN_COPY_DATA_FILE: opening file data.mnc
(PID.TID 0000.0001) // =======================================================
(PID.TID 0000.0001) // Parameter file "data.mnc"
(PID.TID 0000.0001) // =======================================================
(PID.TID 0000.0001) ># Example "data.mnc" file
(PID.TID 0000.0001) ># Lines beginning "#" are comments
(PID.TID 0000.0001) > &MNC_01
(PID.TID 0000.0001) ># mnc_echo_gvtypes=.FALSE.,
(PID.TID 0000.0001) ># mnc_use_indir=.FALSE.,
(PID.TID 0000.0001) > mnc_use_outdir=.TRUE.,
(PID.TID 0000.0001) > mnc_outdir_str='mnc_test_',
(PID.TID 0000.0001) ># mnc_outdir_date=.TRUE.,
(PID.TID 0000.0001) > monitor_mnc=.FALSE.,
(PID.TID 0000.0001) > pickup_write_mnc=.FALSE.,
(PID.TID 0000.0001) > pickup_read_mnc=.FALSE.,
(PID.TID 0000.0001) > &
(PID.TID 0000.0001) ># Note: Some systems use & as the
(PID.TID 0000.0001) ># namelist terminator. Other systems
(PID.TID 0000.0001) ># use a / character (as shown here).
(PID.TID 0000.0001) 
(PID.TID 0000.0001)  MNC_READPARMS: finished reading data.mnc
(PID.TID 0000.0001)  SHAP_FILT_READPARMS: opening data.shap
(PID.TID 0000.0001)  OPEN_COPY_DATA_FILE: opening file data.shap
(PID.TID 0000.0001) // =======================================================
(PID.TID 0000.0001) // Parameter file "data.shap"
(PID.TID 0000.0001) // =======================================================
(PID.TID 0000.0001) ># Shapiro Filter parameters
(PID.TID 0000.0001) > &SHAP_PARM01
(PID.TID 0000.0001) > shap_filt_uvStar=.FALSE.,
(PID.TID 0000.0001) > shap_filt_TrStagg=.TRUE.,
(PID.TID 0000.0001) > Shap_funct=2,
(PID.TID 0000.0001) > nShapT=4,
(PID.TID 0000.0001) > nShapUV=4,
(PID.TID 0000.0001) > nShapTrPhys=4,
(PID.TID 0000.0001) > nShapUVPhys=4,
(PID.TID 0000.0001) >#Shap_TrLength=115000.,
(PID.TID 0000.0001) >#Shap_uvLength=110000.,
(PID.TID 0000.0001) >#-- here is the new value to add:
(PID.TID 0000.0001) > Shap_uvLength=-1.,
(PID.TID 0000.0001) > Shap_Trtau=5400.,
(PID.TID 0000.0001) > Shap_uvtau=1800.,
(PID.TID 0000.0001) > &
(PID.TID 0000.0001) 
(PID.TID 0000.0001)  SHAP_FILT_READPARMS: finished reading data.shap
(PID.TID 0000.0001) Shap_funct =   /* select Shapiro filter function */
(PID.TID 0000.0001)                       2
(PID.TID 0000.0001)     ;
(PID.TID 0000.0001) nShapT =   /* power of Shapiro filter for Temperat */
(PID.TID 0000.0001)                       4
(PID.TID 0000.0001)     ;
(PID.TID 0000.0001) nShapS =   /* power of Shapiro filter for Salinity */
(PID.TID 0000.0001)                       4
(PID.TID 0000.0001)     ;
(PID.TID 0000.0001) nShapUV =   /* power of Shapiro filter for momentum */
(PID.TID 0000.0001)                       4
(PID.TID 0000.0001)     ;
(PID.TID 0000.0001) shap_filt_uvStar = /* apply filter before Press. Solver */
(PID.TID 0000.0001)                   F
(PID.TID 0000.0001)     ;
(PID.TID 0000.0001) shap_filt_TrStagg = /* filter T,S before calc PhiHyd (staggerTimeStep) */
(PID.TID 0000.0001)                   T
(PID.TID 0000.0001)     ;
(PID.TID 0000.0001) Shap_alwaysExchUV = /* always exch(U,V)    nShapUV times*/
(PID.TID 0000.0001)                   T
(PID.TID 0000.0001)     ;
(PID.TID 0000.0001) Shap_alwaysExchTr = /* always exch(Tracer) nShapTr times*/
(PID.TID 0000.0001)                   F
(PID.TID 0000.0001)     ;
(PID.TID 0000.0001) nShapTrPhys =   /* power of physical-space filter (Tracer) */
(PID.TID 0000.0001)                       4
(PID.TID 0000.0001)     ;
(PID.TID 0000.0001) nShapUVPhys =   /* power of physical-space filter (Momentum) */
(PID.TID 0000.0001)                       4
(PID.TID 0000.0001)     ;
(PID.TID 0000.0001) Shap_Trtau =   /* time scale of Shapiro filter (Tracer) */
(PID.TID 0000.0001)                 5.400000000000000E+03
(PID.TID 0000.0001)     ;
(PID.TID 0000.0001) Shap_TrLength =   /* Length scale of Shapiro filter (Tracer) */
(PID.TID 0000.0001)                 0.000000000000000E+00
(PID.TID 0000.0001)     ;
(PID.TID 0000.0001) Shap_uvtau =   /* time scale of Shapiro filter (Momentum) */
(PID.TID 0000.0001)                 1.800000000000000E+03
(PID.TID 0000.0001)     ;
(PID.TID 0000.0001) Shap_uvLength =   /* Length scale of Shapiro filter (Momentum) */
(PID.TID 0000.0001)                -1.000000000000000E+00
(PID.TID 0000.0001)     ;
(PID.TID 0000.0001) Shap_noSlip =  /* No-slip parameter (0=Free-slip ; 1=No-slip)*/
(PID.TID 0000.0001)                 0.000000000000000E+00
(PID.TID 0000.0001)     ;
(PID.TID 0000.0001) Shap_diagFreq =   /* Frequency^-1 for diagnostic output (s)*/
(PID.TID 0000.0001)                 0.000000000000000E+00
(PID.TID 0000.0001)     ;
(PID.TID 0000.0001)  FIZHI_READPARMS: opening data.fizhi
(PID.TID 0000.0001)  OPEN_COPY_DATA_FILE: opening file data.fizhi
(PID.TID 0000.0001) // =======================================================
(PID.TID 0000.0001) // Parameter file "data.fizhi"
(PID.TID 0000.0001) // =======================================================
(PID.TID 0000.0001) ># Fizhi Parameters
(PID.TID 0000.0001) > &fizhi_list
(PID.TID 0000.0001) > nhmsbegin=000000,
(PID.TID 0000.0001) > nymdbegin=20040321,
(PID.TID 0000.0001) > runlength=0.003,
(PID.TID 0000.0001) > &
(PID.TID 0000.0001) 
(PID.TID 0000.0001)  CHANGING NUMBER OF MODEL TIMESTEPS TO        15
(PID.TID 0000.0001)  CHANGING END TIME TO     1800.00
   Begin Date     20040321   Begin Time            0
 Current Date     20040321 Current Time            0
(PID.TID 0000.0001)  DIAGNOSTICS_READPARMS: opening data.diagnostics
(PID.TID 0000.0001)  OPEN_COPY_DATA_FILE: opening file data.diagnostics
(PID.TID 0000.0001) // =======================================================
(PID.TID 0000.0001) // Parameter file "data.diagnostics"
(PID.TID 0000.0001) // =======================================================
(PID.TID 0000.0001) ># Diagnostic Package Choices
(PID.TID 0000.0001) > &diagnostics_list
(PID.TID 0000.0001) >      diag_mnc = .TRUE.,
(PID.TID 0000.0001) >    dumpatlast = .TRUE.,
(PID.TID 0000.0001) >  frequency(1) = 00.06,
(PID.TID 0000.0001) >   levels(1,1) = 1.,
(PID.TID 0000.0001) >   fields(1,1) = 'RADSWT  ','OSR     ','OLR     ','PLALBEDO','CLDFRC  ','PREACC  ',
(PID.TID 0000.0001) >                 'PRECON  ','EVAP    ','RADSWG  ','ALBNIRDF','ALBVISDF','LWGDOWN ',
(PID.TID 0000.0001) >                 'LWGUP   ','EFLUX   ','HFLUX   ','T2M     ','Q2M     ','UFLUX   ',
(PID.TID 0000.0001) >                 'VFLUX   ','U10M    ','V10M    ','PS      ','OSRCLR  ','OLRCLR  ',
(PID.TID 0000.0001) >                 'SWGCLR  ','LWGCLR  ','RSURF   ',
(PID.TID 0000.0001) >   filename(1) = 'SHfields',
(PID.TID 0000.0001) >  frequency(2) = -00.06,
(PID.TID 0000.0001) >   fields(1,2) = 'UVEL    ','VVEL    ','PHIHYD  ','WVEL    ','SALT    ','RELHUM  ',
(PID.TID 0000.0001) >                 'PRESSURE','THETA   ',
(PID.TID 0000.0001) >   filename(2) = 'MLfields',
(PID.TID 0000.0001) >  fileflags(2) = ' P3     ',
(PID.TID 0000.0001) >  frequency(3) = -00.06,
(PID.TID 0000.0001) >   fields(1,3) = 'UVELSQ  ','VVELSQ  ','THETASQ ','WVELSQ  ','PHIHYDSQ','SALTSQ   ',
(PID.TID 0000.0001) >                 'UV_VEL_C','WU_VEL  ','WV_VEL  ','VVELTH  ','WVELTH  ','VVELSLT  ',
(PID.TID 0000.0001) >                 'WVELSLT ','UVELSLT ','UVELTH  ','UVELPHI ','VVELPHI ',
(PID.TID 0000.0001) >   filename(3) = 'MFfields',
(PID.TID 0000.0001) >  fileflags(3) = ' P3     ',
(PID.TID 0000.0001) ># frequency(4) = -00.06,
(PID.TID 0000.0001) >#  levels(1,4) = 1.,2.,3.,4.,5.,6.,7.,8.,9.,10.,11.,12.,13.,14.,15.,16.,17.,18.,19.,20.,21.,22.,23.,24.,25.,26.,27.,28.,
(PID.TID 0000.0001) >#  fields(1,4) = 'RADSW   ','RADLW   ','TURBT   ','MOISTT  ','TURBQ   ','MOISTQ  ',
(PID.TID 0000.0001) >#                'TURBU   ','TURBV   ','DPPHYS  ',
(PID.TID 0000.0001) >#  filename(4) = 'PFfields',
(PID.TID 0000.0001) > &end
(PID.TID 0000.0001) >
(PID.TID 0000.0001) ># Parameter for Diagnostics of per level statistics:
(PID.TID 0000.0001) >#-----------------
(PID.TID 0000.0001) ># for each output-stream:
(PID.TID 0000.0001) >#  stat_fname(n) : prefix of the output file name (only 8.c long) for outp.stream n
(PID.TID 0000.0001) >#  stat_freq(n):< 0 : write snap-shot output every |stat_freq| seconds
(PID.TID 0000.0001) >#               > 0 : write time-average output every stat_freq seconds
(PID.TID 0000.0001) >#  stat_phase(n)    : write at time = stat_phase + multiple of |stat_freq|
(PID.TID 0000.0001) >#  stat_region(:,n) : list of "regions" (default: 1 region only=global)
(PID.TID 0000.0001) >#  stat_fields(:,n) : list of diagnostics fields (8.c) (see "available_diagnostics.log"
(PID.TID 0000.0001) >#                 file for the list of all available diag. in this particular config)
(PID.TID 0000.0001) >#-----------------
(PID.TID 0000.0001) > &DIAG_STATIS_PARMS
(PID.TID 0000.0001) >     stat_freq(1) = 1.00,
(PID.TID 0000.0001) >    stat_phase(1) = 0.,
(PID.TID 0000.0001) > stat_fields(1,1) = 'RADSWT  ','OSR     ','OLR     ','PLALBEDO','CLDFRC  ','PREACC  ',
(PID.TID 0000.0001) >                    'PRECON  ','EVAP    ','RADSWG  ','ALBNIRDF','ALBVISDF','LWGDOWN ',
(PID.TID 0000.0001) >                    'LWGUP   ','EFLUX   ','HFLUX   ','T2M     ','Q2M     ','UFLUX   ',
(PID.TID 0000.0001) >                    'VFLUX   ','U10M    ','V10M    ','PS      ','OSRCLR  ','OLRCLR  ',
(PID.TID 0000.0001) >                    'SWGCLR  ','LWGCLR  ',
(PID.TID 0000.0001) >    stat_fname(1) = 'GTfields',
(PID.TID 0000.0001) > &
(PID.TID 0000.0001) 
(PID.TID 0000.0001) S/R DIAGNOSTICS_READPARMS, read namelist "diagnostics_list": start
(PID.TID 0000.0001) S/R DIAGNOSTICS_READPARMS, read namelist "diagnostics_list": OK
(PID.TID 0000.0001) S/R DIAGNOSTICS_READPARMS, read namelist "DIAG_STATIS_PARMS": start
(PID.TID 0000.0001) S/R DIAGNOSTICS_READPARMS, read namelist "DIAG_STATIS_PARMS": OK
(PID.TID 0000.0001) -----------------------------------------------------
(PID.TID 0000.0001)  DIAGNOSTICS_READPARMS: active diagnostics summary:
(PID.TID 0000.0001) -----------------------------------------------------
(PID.TID 0000.0001) Creating Output Stream: SHfields
(PID.TID 0000.0001) Output Frequency:         0.060000 ; Phase:          0.000000
(PID.TID 0000.0001)  Averaging Freq.:         0.060000 , Phase:          0.000000 , Cycle:  1
(PID.TID 0000.0001)  Levels:       1.
(PID.TID 0000.0001) Fields:    RADSWT   OSR      OLR      PLALBEDO CLDFRC   PREACC   PRECON   EVAP     RADSWG   ALBNIRDF
(PID.TID 0000.0001) Fields:    ALBVISDF LWGDOWN  LWGUP    EFLUX    HFLUX    T2M      Q2M      UFLUX    VFLUX    U10M
(PID.TID 0000.0001) Fields:    V10M     PS       OSRCLR   OLRCLR   SWGCLR   LWGCLR   RSURF
(PID.TID 0000.0001) Creating Output Stream: MLfields
(PID.TID 0000.0001) Output Frequency:        -0.060000 ; Phase:          0.030000
(PID.TID 0000.0001)  Averaging Freq.:         0.000000 , Phase:          0.000000 , Cycle:  1
(PID.TID 0000.0001)  Levels:    will be set later
(PID.TID 0000.0001) Fields:    UVEL     VVEL     PHIHYD   WVEL     SALT     RELHUM   PRESSURE THETA
(PID.TID 0000.0001) Creating Output Stream: MFfields
(PID.TID 0000.0001) Output Frequency:        -0.060000 ; Phase:          0.030000
(PID.TID 0000.0001)  Averaging Freq.:         0.000000 , Phase:          0.000000 , Cycle:  1
(PID.TID 0000.0001)  Levels:    will be set later
(PID.TID 0000.0001) Fields:    UVELSQ   VVELSQ   THETASQ  WVELSQ   PHIHYDSQ SALTSQ   UV_VEL_C WU_VEL   WV_VEL   VVELTH
(PID.TID 0000.0001) Fields:    WVELTH   VVELSLT  WVELSLT  UVELSLT  UVELTH   UVELPHI  VVELPHI
(PID.TID 0000.0001) -----------------------------------------------------
(PID.TID 0000.0001)  DIAGNOSTICS_READPARMS: statistics diags. summary:
(PID.TID 0000.0001) Creating Stats. Output Stream: GTfields
(PID.TID 0000.0001) Output Frequency:         1.000000 ; Phase:          0.000000
(PID.TID 0000.0001)               0
(PID.TID 0000.0001) Fields:    RADSWT   OSR      OLR      PLALBEDO CLDFRC   PREACC   PRECON   EVAP     RADSWG   ALBNIRDF ALBVISDF LWGDOWN  LWGUP    EFLUX    HFLUX    T2M      Q2M      UFLUX    VFLUX    U10M     V10M     PS       OSRCLR   OLRCLR   SWGCLR   LWGCLR
(PID.TID 0000.0001) -----------------------------------------------------
(PID.TID 0000.0001) -----------------------------------------------------
(PID.TID 0000.0001) SET_PARMS: done
(PID.TID 0000.0001) tile:   1 ; Read from file tile001.mitgrid
(PID.TID 0000.0001)   => xC yC dxF dyF rA xG yG dxV dyU rAz dxC dyC rAw rAs dxG dyG
(PID.TID 0000.0001) tile:   2 ; Read from file tile002.mitgrid
(PID.TID 0000.0001)   => xC yC dxF dyF rA xG yG dxV dyU rAz dxC dyC rAw rAs dxG dyG
(PID.TID 0000.0001) tile:   3 ; Read from file tile003.mitgrid
(PID.TID 0000.0001)   => xC yC dxF dyF rA xG yG dxV dyU rAz dxC dyC rAw rAs dxG dyG
(PID.TID 0000.0001) tile:   4 ; Read from file tile004.mitgrid
(PID.TID 0000.0001)   => xC yC dxF dyF rA xG yG dxV dyU rAz dxC dyC rAw rAs dxG dyG
(PID.TID 0000.0001) tile:   5 ; Read from file tile005.mitgrid
(PID.TID 0000.0001)   => xC yC dxF dyF rA xG yG dxV dyU rAz dxC dyC rAw rAs dxG dyG
(PID.TID 0000.0001) tile:   6 ; Read from file tile006.mitgrid
(PID.TID 0000.0001)   => xC yC dxF dyF rA xG yG dxV dyU rAz dxC dyC rAw rAs dxG dyG
(PID.TID 0000.0001) %MON XC_max                       =   1.7854351589505E+02
(PID.TID 0000.0001) %MON XC_min                       =  -1.7854351589505E+02
(PID.TID 0000.0001) %MON XC_mean                      =  -4.6999441375798E-15
(PID.TID 0000.0001) %MON XC_sd                        =   1.0355545336287E+02
(PID.TID 0000.0001) %MON XG_max                       =   1.8000000000000E+02
(PID.TID 0000.0001) %MON XG_min                       =  -1.7708797161002E+02
(PID.TID 0000.0001) %MON XG_mean                      =   1.8796250616675E+00
(PID.TID 0000.0001) %MON XG_sd                        =   1.0410625309932E+02
(PID.TID 0000.0001) %MON DXC_max                      =   3.2375185836900E+05
(PID.TID 0000.0001) %MON DXC_min                      =   1.1353730006923E+05
(PID.TID 0000.0001) %MON DXC_mean                     =   2.8606102525036E+05
(PID.TID 0000.0001) %MON DXC_sd                       =   3.4020997630307E+04
(PID.TID 0000.0001) %MON DXF_max                      =   3.2369947500827E+05
(PID.TID 0000.0001) %MON DXF_min                      =   1.2020820513318E+05
(PID.TID 0000.0001) %MON DXF_mean                     =   2.8605437324820E+05
(PID.TID 0000.0001) %MON DXF_sd                       =   3.4050524252539E+04
(PID.TID 0000.0001) %MON DXG_max                      =   3.2375195872773E+05
(PID.TID 0000.0001) %MON DXG_min                      =   1.0098378008791E+05
(PID.TID 0000.0001) %MON DXG_mean                     =   2.8603818508931E+05
(PID.TID 0000.0001) %MON DXG_sd                       =   3.4140406908005E+04
(PID.TID 0000.0001) %MON DXV_max                      =   3.2380418162750E+05
(PID.TID 0000.0001) %MON DXV_min                      =   8.0152299824136E+04
(PID.TID 0000.0001) %MON DXV_mean                     =   2.8603970633619E+05
(PID.TID 0000.0001) %MON DXV_sd                       =   3.4145142117723E+04
(PID.TID 0000.0001) %MON YC_max                       =   8.7940663871962E+01
(PID.TID 0000.0001) %MON YC_min                       =  -8.7940663871962E+01
(PID.TID 0000.0001) %MON YC_mean                      =   0.0000000000000E+00
(PID.TID 0000.0001) %MON YC_sd                        =   3.8676242969072E+01
(PID.TID 0000.0001) %MON YG_max                       =   9.0000000000000E+01
(PID.TID 0000.0001) %MON YG_min                       =  -9.0000000000000E+01
(PID.TID 0000.0001) %MON YG_mean                      =  -1.2094344438470E-15
(PID.TID 0000.0001) %MON YG_sd                        =   3.9086186579984E+01
(PID.TID 0000.0001) %MON DYC_max                      =   3.2375185836900E+05
(PID.TID 0000.0001) %MON DYC_min                      =   1.1353730006923E+05
(PID.TID 0000.0001) %MON DYC_mean                     =   2.8606102525036E+05
(PID.TID 0000.0001) %MON DYC_sd                       =   3.4020997630307E+04
(PID.TID 0000.0001) %MON DYF_max                      =   3.2369947500827E+05
(PID.TID 0000.0001) %MON DYF_min                      =   1.2020820513318E+05
(PID.TID 0000.0001) %MON DYF_mean                     =   2.8605437324820E+05
(PID.TID 0000.0001) %MON DYF_sd                       =   3.4050524252539E+04
(PID.TID 0000.0001) %MON DYG_max                      =   3.2375195872773E+05
(PID.TID 0000.0001) %MON DYG_min                      =   1.0098378008791E+05
(PID.TID 0000.0001) %MON DYG_mean                     =   2.8603818508931E+05
(PID.TID 0000.0001) %MON DYG_sd                       =   3.4140406908005E+04
(PID.TID 0000.0001) %MON DYU_max                      =   3.2380418162750E+05
(PID.TID 0000.0001) %MON DYU_min                      =   8.0152299824136E+04
(PID.TID 0000.0001) %MON DYU_mean                     =   2.8603970633619E+05
(PID.TID 0000.0001) %MON DYU_sd                       =   3.4145142117723E+04
(PID.TID 0000.0001) %MON RA_max                       =   1.0474757731659E+11
(PID.TID 0000.0001) %MON RA_min                       =   1.5497867056722E+10
(PID.TID 0000.0001) %MON RA_mean                      =   8.2985711332657E+10
(PID.TID 0000.0001) %MON RA_sd                        =   1.7448591913787E+10
(PID.TID 0000.0001) %MON RAW_max                      =   1.0481529828871E+11
(PID.TID 0000.0001) %MON RAW_min                      =   1.1465425741966E+10
(PID.TID 0000.0001) %MON RAW_mean                     =   8.2985711332657E+10
(PID.TID 0000.0001) %MON RAW_sd                       =   1.7503889570793E+10
(PID.TID 0000.0001) %MON RAS_max                      =   1.0481529828871E+11
(PID.TID 0000.0001) %MON RAS_min                      =   1.1465425741966E+10
(PID.TID 0000.0001) %MON RAS_mean                     =   8.2985711332657E+10
(PID.TID 0000.0001) %MON RAS_sd                       =   1.7503889570793E+10
(PID.TID 0000.0001) %MON RAZ_max                      =   1.0484349334619E+11
(PID.TID 0000.0001) %MON RAZ_min                      =   8.8317900612505E+09
(PID.TID 0000.0001) %MON RAZ_mean                     =   8.2992246709235E+10
(PID.TID 0000.0001) %MON RAZ_sd                       =   1.7482297311044E+10
(PID.TID 0000.0001) %MON AngleCS_max                  =   1.0000000000000E+00
(PID.TID 0000.0001) %MON AngleCS_min                  =   1.0000000000000E+00
(PID.TID 0000.0001) %MON AngleCS_mean                 =   1.0000000000000E+00
(PID.TID 0000.0001) %MON AngleCS_sd                   =   0.0000000000000E+00
(PID.TID 0000.0001) %MON AngleSN_max                  =   0.0000000000000E+00
(PID.TID 0000.0001) %MON AngleSN_min                  =   0.0000000000000E+00
(PID.TID 0000.0001) %MON AngleSN_mean                 =   0.0000000000000E+00
(PID.TID 0000.0001) %MON AngleSN_sd                   =   0.0000000000000E+00
(PID.TID 0000.0001) 
(PID.TID 0000.0001) INI_PHIREF: PhiRef/g [m] at level Center (integer)
(PID.TID 0000.0001)                      and at level Interface (half-int.) :
(PID.TID 0000.0001)  K=  0.5  ;  r=  101080.0  ;  phiRef/g=       0.000
(PID.TID 0000.0001)  K=  1.0  ;  r=   98553.0  ;  phiRef/g=     211.618
(PID.TID 0000.0001)  K=  1.5  ;  r=   96026.0  ;  phiRef/g=     429.193
(PID.TID 0000.0001)  K=  2.0  ;  r=   93499.0  ;  phiRef/g=     648.289
(PID.TID 0000.0001)  K=  2.5  ;  r=   90972.0  ;  phiRef/g=     876.016
(PID.TID 0000.0001)  K=  3.0  ;  r=   88445.0  ;  phiRef/g=    1105.324
(PID.TID 0000.0001)  K=  3.5  ;  r=   85918.0  ;  phiRef/g=    1344.193
(PID.TID 0000.0001)  K=  4.0  ;  r=   83391.0  ;  phiRef/g=    1584.709
(PID.TID 0000.0001)  K=  4.5  ;  r=   80864.0  ;  phiRef/g=    1835.875
(PID.TID 0000.0001)  K=  5.0  ;  r=   78337.0  ;  phiRef/g=    2089.621
(PID.TID 0000.0001)  K=  5.5  ;  r=   75810.0  ;  phiRef/g=    2355.346
(PID.TID 0000.0001)  K=  6.0  ;  r=   73283.0  ;  phiRef/g=    2623.773
(PID.TID 0000.0001)  K=  6.5  ;  r=   70756.0  ;  phiRef/g=    2905.769
(PID.TID 0000.0001)  K=  7.0  ;  r=   68229.0  ;  phiRef/g=    3190.604
(PID.TID 0000.0001)  K=  7.5  ;  r=   65702.0  ;  phiRef/g=    3490.936
(PID.TID 0000.0001)  K=  8.0  ;  r=   63175.0  ;  phiRef/g=    3794.260
(PID.TID 0000.0001)  K=  8.5  ;  r=   60648.0  ;  phiRef/g=    4115.449
(PID.TID 0000.0001)  K=  9.0  ;  r=   58121.0  ;  phiRef/g=    4439.808
(PID.TID 0000.0001)  K=  9.5  ;  r=   55594.0  ;  phiRef/g=    4784.988
(PID.TID 0000.0001)  K= 10.0  ;  r=   53067.0  ;  phiRef/g=    5133.542
(PID.TID 0000.0001)  K= 10.5  ;  r=   50540.0  ;  phiRef/g=    5506.684
(PID.TID 0000.0001)  K= 11.0  ;  r=   48013.0  ;  phiRef/g=    5883.438
(PID.TID 0000.0001)  K= 11.5  ;  r=   45486.0  ;  phiRef/g=    6289.688
(PID.TID 0000.0001)  K= 12.0  ;  r=   42959.0  ;  phiRef/g=    6699.831
(PID.TID 0000.0001)  K= 12.5  ;  r=   40432.0  ;  phiRef/g=    7146.048
(PID.TID 0000.0001)  K= 13.0  ;  r=   37905.0  ;  phiRef/g=    7597.208
(PID.TID 0000.0001)  K= 13.5  ;  r=   35378.0  ;  phiRef/g=    8093.639
(PID.TID 0000.0001)  K= 14.0  ;  r=   32851.0  ;  phiRef/g=    8595.509
(PID.TID 0000.0001)  K= 14.5  ;  r=   30324.0  ;  phiRef/g=    9156.007
(PID.TID 0000.0001)  K= 15.0  ;  r=   27797.0  ;  phiRef/g=    9724.314
(PID.TID 0000.0001)  K= 15.5  ;  r=   25270.0  ;  phiRef/g=   10372.073
(PID.TID 0000.0001)  K= 16.0  ;  r=   22743.0  ;  phiRef/g=   11028.733
(PID.TID 0000.0001)  K= 16.5  ;  r=   20216.0  ;  phiRef/g=   11799.753
(PID.TID 0000.0001)  K= 17.0  ;  r=   17689.0  ;  phiRef/g=   12596.319
(PID.TID 0000.0001)  K= 17.5  ;  r=   15162.0  ;  phiRef/g=   13577.072
(PID.TID 0000.0001)  K= 18.0  ;  r=   12635.0  ;  phiRef/g=   14594.997
(PID.TID 0000.0001)  K= 18.5  ;  r=   10108.0  ;  phiRef/g=   15964.899
(PID.TID 0000.0001)  K= 19.0  ;  r=    7581.0  ;  phiRef/g=   17488.721
(PID.TID 0000.0001)  K= 19.5  ;  r=    5054.0  ;  phiRef/g=   20101.180
(PID.TID 0000.0001)  K= 20.0  ;  r=    2527.0  ;  phiRef/g=   23003.912
(PID.TID 0000.0001)  K= 20.5  ;  r=       0.0  ;  phiRef/g=   38748.049
(PID.TID 0000.0001) // =======================================================
(PID.TID 0000.0001) // Field Bottom depths (ini_depths) at iteration          1
(PID.TID 0000.0001) // CMIN =          1.000000000000000E+32
(PID.TID 0000.0001) // CMAX =         -1.000000000000000E+32
(PID.TID 0000.0001) // CINT =          0.000000000000000E+00
(PID.TID 0000.0001) // SYMBOLS (CMIN->CMAX): -abcdefghijklmnopqrstuvwxyz+
(PID.TID 0000.0001) //                  0.0: .
(PID.TID 0000.0001) // RANGE I (Lo:Hi:Step):(  -1: 194:   1)
(PID.TID 0000.0001) // RANGE J (Lo:Hi:Step):(  34:  -1:  -1)
(PID.TID 0000.0001) // RANGE K (Lo:Hi:Step):(   1:   1:   1)
(PID.TID 0000.0001) // =======================================================
(PID.TID 0000.0001) // =======================================================
(PID.TID 0000.0001) // END OF FIELD                                          =
(PID.TID 0000.0001) // =======================================================
(PID.TID 0000.0001) 
(PID.TID 0000.0001) // =======================================================
(PID.TID 0000.0001) // Field Model R_low (ini_masks_etc) at iteration          1
(PID.TID 0000.0001) // CMIN =          1.000000000000000E+32
(PID.TID 0000.0001) // CMAX =         -1.000000000000000E+32
(PID.TID 0000.0001) // CINT =          0.000000000000000E+00
(PID.TID 0000.0001) // SYMBOLS (CMIN->CMAX): -abcdefghijklmnopqrstuvwxyz+
(PID.TID 0000.0001) //                  0.0: .
(PID.TID 0000.0001) // RANGE I (Lo:Hi:Step):(  -1: 194:   1)
(PID.TID 0000.0001) // RANGE J (Lo:Hi:Step):(  34:  -1:  -1)
(PID.TID 0000.0001) // RANGE K (Lo:Hi:Step):(   1:   1:   1)
(PID.TID 0000.0001) // =======================================================
(PID.TID 0000.0001) // =======================================================
(PID.TID 0000.0001) // END OF FIELD                                          =
(PID.TID 0000.0001) // =======================================================
(PID.TID 0000.0001) 
(PID.TID 0000.0001) // =======================================================
(PID.TID 0000.0001) // Field Model Ro_surf (ini_masks_etc) at iteration          1
(PID.TID 0000.0001) // CMIN =          1.010800000000000E+05
(PID.TID 0000.0001) // CMAX =          1.010800000000000E+05
(PID.TID 0000.0001) // CINT =          0.000000000000000E+00
(PID.TID 0000.0001) // SYMBOLS (CMIN->CMAX): -abcdefghijklmnopqrstuvwxyz+
(PID.TID 0000.0001) //                  0.0: .
(PID.TID 0000.0001) // RANGE I (Lo:Hi:Step):(  -1: 194:   1)
(PID.TID 0000.0001) // RANGE J (Lo:Hi:Step):(  34:  -1:  -1)
(PID.TID 0000.0001) // RANGE K (Lo:Hi:Step):(   1:   1:   1)
(PID.TID 0000.0001) // =======================================================
(PID.TID 0000.0001) // =======================================================
(PID.TID 0000.0001) // END OF FIELD                                          =
(PID.TID 0000.0001) // =======================================================
(PID.TID 0000.0001) 
(PID.TID 0000.0001) // =======================================================
(PID.TID 0000.0001) // Field hFacC at iteration          1
(PID.TID 0000.0001) // CMIN =          1.000000000000000E+00
(PID.TID 0000.0001) // CMAX =          1.000000000000000E+00
(PID.TID 0000.0001) // CINT =          0.000000000000000E+00
(PID.TID 0000.0001) // SYMBOLS (CMIN->CMAX): -abcdefghijklmnopqrstuvwxyz+
(PID.TID 0000.0001) //                  0.0: .
(PID.TID 0000.0001) // RANGE I (Lo:Hi:Step):(  -1: 194:   1)
(PID.TID 0000.0001) // RANGE J (Lo:Hi:Step):(  34:  -1:  -1)
(PID.TID 0000.0001) // RANGE K (Lo:Hi:Step):(   1:   1:   1)
(PID.TID 0000.0001) // =======================================================
(PID.TID 0000.0001) // =======================================================
(PID.TID 0000.0001) // END OF FIELD                                          =
(PID.TID 0000.0001) // =======================================================
(PID.TID 0000.0001) 
(PID.TID 0000.0001) // =======================================================
(PID.TID 0000.0001) // Field hFacW at iteration          1
(PID.TID 0000.0001) // CMIN =          1.000000000000000E+00
(PID.TID 0000.0001) // CMAX =          1.000000000000000E+00
(PID.TID 0000.0001) // CINT =          0.000000000000000E+00
(PID.TID 0000.0001) // SYMBOLS (CMIN->CMAX): -abcdefghijklmnopqrstuvwxyz+
(PID.TID 0000.0001) //                  0.0: .
(PID.TID 0000.0001) // RANGE I (Lo:Hi:Step):(  -1: 194:   1)
(PID.TID 0000.0001) // RANGE J (Lo:Hi:Step):(  34:  -1:  -1)
(PID.TID 0000.0001) // RANGE K (Lo:Hi:Step):(   1:   1:   1)
(PID.TID 0000.0001) // =======================================================
(PID.TID 0000.0001) // =======================================================
(PID.TID 0000.0001) // END OF FIELD                                          =
(PID.TID 0000.0001) // =======================================================
(PID.TID 0000.0001) 
(PID.TID 0000.0001) // =======================================================
(PID.TID 0000.0001) // Field hFacS at iteration          1
(PID.TID 0000.0001) // CMIN =          1.000000000000000E+00
(PID.TID 0000.0001) // CMAX =          1.000000000000000E+00
(PID.TID 0000.0001) // CINT =          0.000000000000000E+00
(PID.TID 0000.0001) // SYMBOLS (CMIN->CMAX): -abcdefghijklmnopqrstuvwxyz+
(PID.TID 0000.0001) //                  0.0: .
(PID.TID 0000.0001) // RANGE I (Lo:Hi:Step):(  -1: 194:   1)
(PID.TID 0000.0001) // RANGE J (Lo:Hi:Step):(  34:  -1:  -1)
(PID.TID 0000.0001) // RANGE K (Lo:Hi:Step):(   1:   1:   1)
(PID.TID 0000.0001) // =======================================================
(PID.TID 0000.0001) // =======================================================
(PID.TID 0000.0001) // END OF FIELD                                          =
(PID.TID 0000.0001) // =======================================================
(PID.TID 0000.0001) 
(PID.TID 0000.0001) 
(PID.TID 0000.0001) // ===================================
(PID.TID 0000.0001) // GAD parameters :
(PID.TID 0000.0001) // ===================================
(PID.TID 0000.0001) tempAdvScheme =   /* Temp. Horiz.Advection scheme selector */
(PID.TID 0000.0001)                       2
(PID.TID 0000.0001)     ;
(PID.TID 0000.0001) tempVertAdvScheme =   /* Temp. Vert. Advection scheme selector */
(PID.TID 0000.0001)                       2
(PID.TID 0000.0001)     ;
(PID.TID 0000.0001) tempMultiDimAdvec =   /* use Muti-Dim Advec method for Temp */
(PID.TID 0000.0001)                   F
(PID.TID 0000.0001)     ;
(PID.TID 0000.0001) AdamsBashforthGt =   /* apply Adams-Bashforth extrapolation on Gt */
(PID.TID 0000.0001)                   T
(PID.TID 0000.0001)     ;
(PID.TID 0000.0001) AdamsBashforth_T =   /* apply Adams-Bashforth extrapolation on Temp */
(PID.TID 0000.0001)                   F
(PID.TID 0000.0001)     ;
(PID.TID 0000.0001) saltAdvScheme =   /* Salt. Horiz.advection scheme selector */
(PID.TID 0000.0001)                       3
(PID.TID 0000.0001)     ;
(PID.TID 0000.0001) saltVertAdvScheme =   /* Salt. Vert. Advection scheme selector */
(PID.TID 0000.0001)                       3
(PID.TID 0000.0001)     ;
(PID.TID 0000.0001) saltMultiDimAdvec =   /* use Muti-Dim Advec method for Salt */
(PID.TID 0000.0001)                   F
(PID.TID 0000.0001)     ;
(PID.TID 0000.0001) AdamsBashforthGs =   /* apply Adams-Bashforth extrapolation on Gs */
(PID.TID 0000.0001)                   T
(PID.TID 0000.0001)     ;
(PID.TID 0000.0001) AdamsBashforth_S =   /* apply Adams-Bashforth extrapolation on Salt */
(PID.TID 0000.0001)                   F
(PID.TID 0000.0001)     ;
(PID.TID 0000.0001) // ===================================
 Setting Alarm for: 20040321  000000,  with frequency:       3000, and Tag: radsw                                                                           
 Setting Alarm for: 20040321  000000,  with frequency:       3000, and Tag: radlw                                                                           
 Setting Alarm for: 20040321  000000,  with frequency:        400, and Tag: turb                                                                            
 Setting Alarm for: 20040321  000000,  with frequency:       1000, and Tag: moist                                                                           
 Setting Alarm for: 20040321  000000,  with frequency:          0, and Tag: pnt                                                                             
 Number of Total Tiles for bi=           1:         2048
 Number of Land  Tiles for bi=           1:            0
 Number of Total Tiles for bi=           2:         2048
 Number of Land  Tiles for bi=           2:            0
 Number of Total Tiles for bi=           3:         2048
 Number of Land  Tiles for bi=           3:            0
 Number of Total Tiles for bi=           4:         2048
 Number of Land  Tiles for bi=           4:            0
 Number of Total Tiles for bi=           5:         2048
 Number of Land  Tiles for bi=           5:            0
 Number of Total Tiles for bi=           6:         2048
 Number of Land  Tiles for bi=           6:            0
(PID.TID 0000.0001) ------------------------------------------------------------
(PID.TID 0000.0001) DIAGNOSTICS_SET_LEVELS: done
(PID.TID 0000.0001)  Total Nb of available Diagnostics: ndiagt= 376
(PID.TID 0000.0001)  write list of available Diagnostics to file: available_diagnostics.log
(PID.TID 0000.0001) SETDIAG: Allocate  1 x  1 Levels for Diagnostic # 201 RADSWT
(PID.TID 0000.0001) SETDIAG: Allocate  1 x  1 Levels for Diagnostic # 224 OSR
(PID.TID 0000.0001) SETDIAG: Allocate  1 x  1 Levels for Diagnostic # 190 OLR
(PID.TID 0000.0001) SETDIAG: Allocate  1 x  1 Levels for Diagnostic # 363 PLALBEDO
(PID.TID 0000.0001) SETDIAG: Allocate  1 x  1 Levels for Diagnostic # 254 CLDFRC
(PID.TID 0000.0001) SETDIAG: Allocate  1 x  1 Levels for Diagnostic # 174 PREACC
(PID.TID 0000.0001) SETDIAG: Allocate  1 x  1 Levels for Diagnostic # 175 PRECON
(PID.TID 0000.0001) SETDIAG: Allocate  1 x  1 Levels for Diagnostic # 205 EVAP
(PID.TID 0000.0001) SETDIAG: Allocate  1 x  1 Levels for Diagnostic # 158 RADSWG
(PID.TID 0000.0001) SETDIAG: Allocate  1 x  1 Levels for Diagnostic # 334 ALBNIRDF
(PID.TID 0000.0001) SETDIAG: Allocate  1 x  1 Levels for Diagnostic # 332 ALBVISDF
(PID.TID 0000.0001) SETDIAG: Allocate  1 x  1 Levels for Diagnostic # 199 LWGDOWN
(PID.TID 0000.0001) SETDIAG: Allocate  1 x  1 Levels for Diagnostic # 189 LWGUP
(PID.TID 0000.0001) SETDIAG: Allocate  1 x  1 Levels for Diagnostic # 153 EFLUX
(PID.TID 0000.0001) SETDIAG: Allocate  1 x  1 Levels for Diagnostic # 152 HFLUX
(PID.TID 0000.0001) SETDIAG: Allocate  1 x  1 Levels for Diagnostic # 258 T2M
(PID.TID 0000.0001) SETDIAG: Allocate  1 x  1 Levels for Diagnostic # 259 Q2M
(PID.TID 0000.0001) SETDIAG: Allocate  1 x  1 Levels for Diagnostic # 154 UFLUX
(PID.TID 0000.0001) SETDIAG: Allocate  1 x  1 Levels for Diagnostic # 155 VFLUX
(PID.TID 0000.0001) SETDIAG: Allocate  1 x  1 Levels for Diagnostic # 260 U10M
(PID.TID 0000.0001) SETDIAG: Allocate  1 x  1 Levels for Diagnostic # 261 V10M
(PID.TID 0000.0001) SETDIAG: Allocate  1 x  1 Levels for Diagnostic # 232 PS
(PID.TID 0000.0001) SETDIAG: Allocate  1 x  1 Levels for Diagnostic # 225 OSRCLR
(PID.TID 0000.0001) SETDIAG: Allocate  1 x  1 Levels for Diagnostic # 191 OLRCLR
(PID.TID 0000.0001) SETDIAG: Allocate  1 x  1 Levels for Diagnostic # 235 SWGCLR
(PID.TID 0000.0001) SETDIAG: Allocate  1 x  1 Levels for Diagnostic # 192 LWGCLR
(PID.TID 0000.0001) SETDIAG: Allocate  1 x  1 Levels for Diagnostic #  78 RSURF
(PID.TID 0000.0001) SETDIAG: Allocate 20 x  1 Levels for Diagnostic #  29 UVEL
(PID.TID 0000.0001) SETDIAG: Allocate 20 x  1 Levels for Diagnostic #  30 VVEL
(PID.TID 0000.0001) SETDIAG: Allocate 20 x  1 Levels for Diagnostic #  63 PHIHYD
(PID.TID 0000.0001) SETDIAG: Allocate 20 x  1 Levels for Diagnostic #  31 WVEL
(PID.TID 0000.0001) SETDIAG: Allocate 20 x  1 Levels for Diagnostic #  27 SALT
(PID.TID 0000.0001) SETDIAG: Allocate 20 x  1 Levels for Diagnostic #  28 RELHUM
(PID.TID 0000.0001) SETDIAG: Allocate 20 x  1 Levels for Diagnostic #  77 PRESSURE
(PID.TID 0000.0001) SETDIAG: Allocate 20 x  1 Levels for Diagnostic #  26 THETA
(PID.TID 0000.0001) SETDIAG: Allocate 20 x  1 Levels for Diagnostic #  34 UVELSQ
(PID.TID 0000.0001) SETDIAG: Allocate 20 x  1 Levels for Diagnostic #  35 VVELSQ
(PID.TID 0000.0001) SETDIAG: Allocate 20 x  1 Levels for Diagnostic #  32 THETASQ
(PID.TID 0000.0001) SETDIAG: Allocate 20 x  1 Levels for Diagnostic #  36 WVELSQ
(PID.TID 0000.0001) SETDIAG: Allocate 20 x  1 Levels for Diagnostic #  64 PHIHYDSQ
(PID.TID 0000.0001) SETDIAG: Allocate 20 x  1 Levels for Diagnostic #  33 SALTSQ
(PID.TID 0000.0001) SETDIAG: Allocate 20 x  1 Levels for Diagnostic #  37 UV_VEL_C
(PID.TID 0000.0001) SETDIAG: Allocate 20 x  1 Levels for Diagnostic #  39 WU_VEL
(PID.TID 0000.0001) SETDIAG: Allocate 20 x  1 Levels for Diagnostic #  40 WV_VEL
(PID.TID 0000.0001) SETDIAG: Allocate 20 x  1 Levels for Diagnostic #  51 VVELTH
(PID.TID 0000.0001) SETDIAG: Allocate 20 x  1 Levels for Diagnostic #  52 WVELTH
(PID.TID 0000.0001) SETDIAG: Allocate 20 x  1 Levels for Diagnostic #  54 VVELSLT
(PID.TID 0000.0001) SETDIAG: Allocate 20 x  1 Levels for Diagnostic #  55 WVELSLT
(PID.TID 0000.0001) SETDIAG: Allocate 20 x  1 Levels for Diagnostic #  53 UVELSLT
(PID.TID 0000.0001) SETDIAG: Allocate 20 x  1 Levels for Diagnostic #  50 UVELTH
(PID.TID 0000.0001) SETDIAG: Allocate 20 x  1 Levels for Diagnostic #  56 UVELPHI
(PID.TID 0000.0001) SETDIAG: Allocate 20 x  1 Levels for Diagnostic #  57 VVELPHI
(PID.TID 0000.0001)   space allocated for all diagnostics:   527 levels
(PID.TID 0000.0001)   set mate pointer for diag # 154  UFLUX    , Parms: UM   155L1
(PID.TID 0000.0001)   set mate pointer for diag # 155  VFLUX    , Parms: VM   154L1
(PID.TID 0000.0001)   set mate pointer for diag # 260  U10M     , Parms: UM   261M1
(PID.TID 0000.0001)   set mate pointer for diag # 261  V10M     , Parms: VM   260M1
(PID.TID 0000.0001)   set mate pointer for diag #  29  UVEL     , Parms: UU   030MR
(PID.TID 0000.0001)   set mate pointer for diag #  30  VVEL     , Parms: VV   029MR
(PID.TID 0000.0001)   set mate pointer for diag #  34  UVELSQ   , Parms: UU   035MR
(PID.TID 0000.0001)   set mate pointer for diag #  35  VVELSQ   , Parms: VV   034MR
(PID.TID 0000.0001)   set mate pointer for diag #  37  UV_VEL_C , Parms: UM   037MR
(PID.TID 0000.0001)   set mate pointer for diag #  51  VVELTH   , Parms: VV   050MR
(PID.TID 0000.0001)   set mate pointer for diag #  54  VVELSLT  , Parms: VV   053MR
(PID.TID 0000.0001)   set mate pointer for diag #  53  UVELSLT  , Parms: UU   054MR
(PID.TID 0000.0001)   set mate pointer for diag #  50  UVELTH   , Parms: UU   051MR
(PID.TID 0000.0001)   set mate pointer for diag #  56  UVELPHI  , Parms: UU   057MR
(PID.TID 0000.0001)   set mate pointer for diag #  57  VVELPHI  , Parms: VV   056MR
(PID.TID 0000.0001) DIAGNOSTICS_SET_POINTERS: Set levels for Outp.Stream: MLfields
(PID.TID 0000.0001)  Levels:       1.   2.   3.   4.   5.   6.   7.   8.   9.  10.  11.  12.  13.  14.  15.  16.  17.  18.  19.  20.
(PID.TID 0000.0001) DIAGNOSTICS_SET_POINTERS: Set levels for Outp.Stream: MFfields
(PID.TID 0000.0001)  Levels:       1.   2.   3.   4.   5.   6.   7.   8.   9.  10.  11.  12.  13.  14.  15.  16.  17.  18.  19.  20.
(PID.TID 0000.0001) DIAGNOSTICS_SET_POINTERS: done
(PID.TID 0000.0001) ------------------------------------------------------------
(PID.TID 0000.0001) DIAGSTATS_SET_REGIONS: define no region
(PID.TID 0000.0001) ------------------------------------------------------------
(PID.TID 0000.0001) SETDIAG: Allocate  1 Levels for Stats-Diag # 201 RADSWT
(PID.TID 0000.0001) SETDIAG: Allocate  1 Levels for Stats-Diag # 224 OSR
(PID.TID 0000.0001) SETDIAG: Allocate  1 Levels for Stats-Diag # 190 OLR
(PID.TID 0000.0001) SETDIAG: Allocate  1 Levels for Stats-Diag # 363 PLALBEDO
(PID.TID 0000.0001) SETDIAG: Allocate  1 Levels for Stats-Diag # 254 CLDFRC
(PID.TID 0000.0001) SETDIAG: Allocate  1 Levels for Stats-Diag # 174 PREACC
(PID.TID 0000.0001) SETDIAG: Allocate  1 Levels for Stats-Diag # 175 PRECON
(PID.TID 0000.0001) SETDIAG: Allocate  1 Levels for Stats-Diag # 205 EVAP
(PID.TID 0000.0001) SETDIAG: Allocate  1 Levels for Stats-Diag # 158 RADSWG
(PID.TID 0000.0001) SETDIAG: Allocate  1 Levels for Stats-Diag # 334 ALBNIRDF
(PID.TID 0000.0001) SETDIAG: Allocate  1 Levels for Stats-Diag # 332 ALBVISDF
(PID.TID 0000.0001) SETDIAG: Allocate  1 Levels for Stats-Diag # 199 LWGDOWN
(PID.TID 0000.0001) SETDIAG: Allocate  1 Levels for Stats-Diag # 189 LWGUP
(PID.TID 0000.0001) SETDIAG: Allocate  1 Levels for Stats-Diag # 153 EFLUX
(PID.TID 0000.0001) SETDIAG: Allocate  1 Levels for Stats-Diag # 152 HFLUX
(PID.TID 0000.0001) SETDIAG: Allocate  1 Levels for Stats-Diag # 258 T2M
(PID.TID 0000.0001) SETDIAG: Allocate  1 Levels for Stats-Diag # 259 Q2M
(PID.TID 0000.0001) SETDIAG: Allocate  1 Levels for Stats-Diag # 154 UFLUX
(PID.TID 0000.0001) SETDIAG: Allocate  1 Levels for Stats-Diag # 155 VFLUX
(PID.TID 0000.0001) SETDIAG: Allocate  1 Levels for Stats-Diag # 260 U10M
(PID.TID 0000.0001) SETDIAG: Allocate  1 Levels for Stats-Diag # 261 V10M
(PID.TID 0000.0001) SETDIAG: Allocate  1 Levels for Stats-Diag # 232 PS
(PID.TID 0000.0001) SETDIAG: Allocate  1 Levels for Stats-Diag # 225 OSRCLR
(PID.TID 0000.0001) SETDIAG: Allocate  1 Levels for Stats-Diag # 191 OLRCLR
(PID.TID 0000.0001) SETDIAG: Allocate  1 Levels for Stats-Diag # 235 SWGCLR
(PID.TID 0000.0001) SETDIAG: Allocate  1 Levels for Stats-Diag # 192 LWGCLR
(PID.TID 0000.0001)   space allocated for all stats-diags:    26 levels
(PID.TID 0000.0001) DIAGSTATS_SET_POINTERS: done
(PID.TID 0000.0001) ------------------------------------------------------------
 Setting Alarm for: 20040321  000000,  with frequency:      60000, and Tag: diagtag01                                                                       
 Setting Alarm for: 20040321  000000,  with frequency:      60000, and Tag: diagtag02                                                                       
 Setting Alarm for: 20040321  000000,  with frequency:      60000, and Tag: diagtag03                                                                       
 Setting Alarm for: 20040321  000000,  with frequency:    1000000, and Tag: diagStg01                                                                       
(PID.TID 0000.0001) %MON fCori_max                    =   1.4535016908525E-04
(PID.TID 0000.0001) %MON fCori_min                    =  -1.4535016908525E-04
(PID.TID 0000.0001) %MON fCori_mean                   =   0.0000000000000E+00
(PID.TID 0000.0001) %MON fCori_sd                     =   8.3972192788621E-05
(PID.TID 0000.0001) %MON fCoriG_max                   =   1.4544410433286E-04
(PID.TID 0000.0001) %MON fCoriG_min                   =  -1.4544410433286E-04
(PID.TID 0000.0001) %MON fCoriG_mean                  =   0.0000000000000E+00
(PID.TID 0000.0001) %MON fCoriG_sd                    =   8.4860812167727E-05
(PID.TID 0000.0001) %MON fCoriCos_max                 =   1.4540341538469E-04
(PID.TID 0000.0001) %MON fCoriCos_min                 =   5.2264550201501E-06
(PID.TID 0000.0001) %MON fCoriCos_mean                =   1.1482595466044E-04
(PID.TID 0000.0001) %MON fCoriCos_sd                  =   3.0292878037194E-05
(PID.TID 0000.0001) INI_CG2D: CG2D normalisation factor =  9.8060549904498906E-06
(PID.TID 0000.0001) INI_CG2D: cg2dTolerance = 4.166463737598144E-10 (Area=5.0986421043E+14)
(PID.TID 0000.0001) 
(PID.TID 0000.0001) CONFIG_CHECK: OK
(PID.TID 0000.0001) // =======================================================
(PID.TID 0000.0001) // Model configuration
(PID.TID 0000.0001) // =======================================================
(PID.TID 0000.0001) //
(PID.TID 0000.0001) // "Physical" paramters ( PARM01 in namelist )
(PID.TID 0000.0001) //
(PID.TID 0000.0001) buoyancyRelation = ATMOSPHERIC
(PID.TID 0000.0001) fluidIsAir  =  /* fluid major constituent is Air */
(PID.TID 0000.0001)                   T
(PID.TID 0000.0001)     ;
(PID.TID 0000.0001) fluidIsWater=  /* fuild major constituent is Water */
(PID.TID 0000.0001)                   F
(PID.TID 0000.0001)     ;
(PID.TID 0000.0001) usingPCoords =  /* use p (or p*) vertical coordinate */
(PID.TID 0000.0001)                   T
(PID.TID 0000.0001)     ;
(PID.TID 0000.0001) usingZCoords =  /* use z (or z*) vertical coordinate */
(PID.TID 0000.0001)                   F
(PID.TID 0000.0001)     ;
(PID.TID 0000.0001) tRef =   /* Reference temperature profile ( oC or K ) */
(PID.TID 0000.0001)                 2.860000000000000E+02,      /* K =  1 */
(PID.TID 0000.0001)                 2.880000000000000E+02,      /* K =  2 */
(PID.TID 0000.0001)                 2.900000000000000E+02,      /* K =  3 */
(PID.TID 0000.0001)                 2.920000000000000E+02,      /* K =  4 */
(PID.TID 0000.0001)                 2.950000000000000E+02,      /* K =  5 */
(PID.TID 0000.0001)                 2.980000000000000E+02,      /* K =  6 */
(PID.TID 0000.0001)                 3.010000000000000E+02,      /* K =  7 */
(PID.TID 0000.0001)                 3.040000000000000E+02,      /* K =  8 */
(PID.TID 0000.0001)                 3.070000000000000E+02,      /* K =  9 */
(PID.TID 0000.0001)                 3.100000000000000E+02,      /* K = 10 */
(PID.TID 0000.0001)                 3.130000000000000E+02,      /* K = 11 */
(PID.TID 0000.0001)                 3.160000000000000E+02,      /* K = 12 */
(PID.TID 0000.0001)                 3.195000000000000E+02,      /* K = 13 */
(PID.TID 0000.0001)                 3.230000000000000E+02,      /* K = 14 */
(PID.TID 0000.0001)                 3.275000000000000E+02,      /* K = 15 */
(PID.TID 0000.0001)                 3.320000000000000E+02,      /* K = 16 */
(PID.TID 0000.0001)                 3.430000000000000E+02,      /* K = 17 */
(PID.TID 0000.0001)                 3.560000000000000E+02,      /* K = 18 */
(PID.TID 0000.0001)                 3.960000000000000E+02,      /* K = 19 */
(PID.TID 0000.0001)                 4.400000000000000E+02       /* K = 20 */
(PID.TID 0000.0001)     ;
(PID.TID 0000.0001) sRef =   /* Reference salinity profile ( psu ) */
(PID.TID 0000.0001)    20 @  0.000000000000000E+00              /* K =  1: 20 */
(PID.TID 0000.0001)     ;
(PID.TID 0000.0001) viscAh =   /* Lateral eddy viscosity ( m^2/s ) */
(PID.TID 0000.0001)                 0.000000000000000E+00
(PID.TID 0000.0001)     ;
(PID.TID 0000.0001) viscAhMax =   /* Maximum lateral eddy viscosity ( m^2/s ) */
(PID.TID 0000.0001)                 1.000000000000000E+21
(PID.TID 0000.0001)     ;
(PID.TID 0000.0001) viscAhGrid =   /* Grid dependent lateral eddy viscosity ( non-dim. ) */
(PID.TID 0000.0001)                 0.000000000000000E+00
(PID.TID 0000.0001)     ;
(PID.TID 0000.0001) useFullLeith =   /* Use Full Form of Leith Viscosity on/off flag*/
(PID.TID 0000.0001)                   F
(PID.TID 0000.0001)     ;
(PID.TID 0000.0001) useStrainTensionVisc =   /* Use StrainTension Form of Viscous Operator on/off flag*/
(PID.TID 0000.0001)                   F
(PID.TID 0000.0001)     ;
(PID.TID 0000.0001) useAreaViscLength =   /* Use area for visc length instead of geom. mean*/
(PID.TID 0000.0001)                   F
(PID.TID 0000.0001)     ;
(PID.TID 0000.0001) viscC2leith = /* Leith harmonic visc. factor (on grad(vort),non-dim.) */
(PID.TID 0000.0001)                 0.000000000000000E+00
(PID.TID 0000.0001)     ;
(PID.TID 0000.0001) viscC2leithD = /* Leith harmonic viscosity factor (on grad(div),non-dim.) */
(PID.TID 0000.0001)                 0.000000000000000E+00
(PID.TID 0000.0001)     ;
(PID.TID 0000.0001) viscC2smag =   /* Smagorinsky harmonic viscosity factor (non-dim.) */
(PID.TID 0000.0001)                 0.000000000000000E+00
(PID.TID 0000.0001)     ;
(PID.TID 0000.0001) viscA4 =   /* Lateral biharmonic viscosity ( m^4/s ) */
(PID.TID 0000.0001)                 0.000000000000000E+00
(PID.TID 0000.0001)     ;
(PID.TID 0000.0001) viscA4Max =   /* Maximum biharmonic viscosity ( m^2/s ) */
(PID.TID 0000.0001)                 1.000000000000000E+21
(PID.TID 0000.0001)     ;
(PID.TID 0000.0001) viscA4Grid =   /* Grid dependent biharmonic viscosity ( non-dim. ) */
(PID.TID 0000.0001)                 0.000000000000000E+00
(PID.TID 0000.0001)     ;
(PID.TID 0000.0001) viscC4leith = /* Leith biharm viscosity factor (on grad(vort), non-dim.) */
(PID.TID 0000.0001)                 0.000000000000000E+00
(PID.TID 0000.0001)     ;
(PID.TID 0000.0001) viscC4leithD = /* Leith biharm viscosity factor (on grad(div), non-dim.) */
(PID.TID 0000.0001)                 0.000000000000000E+00
(PID.TID 0000.0001)     ;
(PID.TID 0000.0001) viscC4Smag = /* Smagorinsky biharm viscosity factor (non-dim) */
(PID.TID 0000.0001)                 0.000000000000000E+00
(PID.TID 0000.0001)     ;
(PID.TID 0000.0001) no_slip_sides =  /* Viscous BCs: No-slip sides */
(PID.TID 0000.0001)                   F
(PID.TID 0000.0001)     ;
(PID.TID 0000.0001) sideDragFactor = /* side-drag scaling factor (non-dim) */
(PID.TID 0000.0001)                 2.000000000000000E+00
(PID.TID 0000.0001)     ;
(PID.TID 0000.0001) viscAr =   /* Vertical eddy viscosity ( units of r^2/s ) */
(PID.TID 0000.0001)                 0.000000000000000E+00
(PID.TID 0000.0001)     ;
(PID.TID 0000.0001) no_slip_bottom =  /* Viscous BCs: No-slip bottom */
(PID.TID 0000.0001)                   F
(PID.TID 0000.0001)     ;
(PID.TID 0000.0001) bottomDragLinear = /* linear bottom-drag coefficient ( 1/s ) */
(PID.TID 0000.0001)                 0.000000000000000E+00
(PID.TID 0000.0001)     ;
(PID.TID 0000.0001) bottomDragQuadratic = /* quadratic bottom-drag coeff. ( 1/m ) */
(PID.TID 0000.0001)                 0.000000000000000E+00
(PID.TID 0000.0001)     ;
(PID.TID 0000.0001) diffKhT =   /* Laplacian diffusion of heat laterally ( m^2/s ) */
(PID.TID 0000.0001)                 0.000000000000000E+00
(PID.TID 0000.0001)     ;
(PID.TID 0000.0001) diffK4T =   /* Bihaarmonic diffusion of heat laterally ( m^4/s ) */
(PID.TID 0000.0001)                 0.000000000000000E+00
(PID.TID 0000.0001)     ;
(PID.TID 0000.0001) diffKhS =   /* Laplacian diffusion of salt laterally ( m^2/s ) */
(PID.TID 0000.0001)                 0.000000000000000E+00
(PID.TID 0000.0001)     ;
(PID.TID 0000.0001) diffK4S =   /* Bihaarmonic diffusion of salt laterally ( m^4/s ) */
(PID.TID 0000.0001)                 0.000000000000000E+00
(PID.TID 0000.0001)     ;
(PID.TID 0000.0001) diffKrNrT = /* vertical profile of vertical diffusion of Temp ( m^2/s )*/
(PID.TID 0000.0001)    20 @  0.000000000000000E+00              /* K =  1: 20 */
(PID.TID 0000.0001)     ;
(PID.TID 0000.0001) diffKrNrS = /* vertical profile of vertical diffusion of Salt ( m^2/s )*/
(PID.TID 0000.0001)    20 @  0.000000000000000E+00              /* K =  1: 20 */
(PID.TID 0000.0001)     ;
(PID.TID 0000.0001) diffKrBL79surf =   /* Surface diffusion for Bryan and Lewis 1979 ( m^2/s ) */
(PID.TID 0000.0001)                 0.000000000000000E+00
(PID.TID 0000.0001)     ;
(PID.TID 0000.0001) diffKrBL79deep =   /* Deep diffusion for Bryan and Lewis 1979 ( m^2/s ) */
(PID.TID 0000.0001)                 0.000000000000000E+00
(PID.TID 0000.0001)     ;
(PID.TID 0000.0001) diffKrBL79scl =   /* Depth scale for Bryan and Lewis 1979 ( m ) */
(PID.TID 0000.0001)                 2.000000000000000E+02
(PID.TID 0000.0001)     ;
(PID.TID 0000.0001) diffKrBL79Ho =   /* Turning depth for Bryan and Lewis 1979 ( m ) */
(PID.TID 0000.0001)                -2.000000000000000E+03
(PID.TID 0000.0001)     ;
(PID.TID 0000.0001) Equation of State : eosType = IDEALG ;
(PID.TID 0000.0001) tAlpha =   /* Linear EOS thermal expansion coefficient ( 1/oC ) */
(PID.TID 0000.0001)                 1.234567000000000E+05
(PID.TID 0000.0001)     ;
(PID.TID 0000.0001) sBeta =   /* Linear EOS haline contraction coefficient ( 1/psu ) */
(PID.TID 0000.0001)                 1.234567000000000E+05
(PID.TID 0000.0001)     ;
(PID.TID 0000.0001) atm_Rd =  /* gas constant for dry air ( J/kg/K ) */
(PID.TID 0000.0001)                 2.868571428571428E+02
(PID.TID 0000.0001)     ;
(PID.TID 0000.0001) atm_Cp =  /* specific heat (Cp) of dry air ( J/kg/K ) */
(PID.TID 0000.0001)                 1.004000000000000E+03
(PID.TID 0000.0001)     ;
(PID.TID 0000.0001) atm_kappa =  /* kappa (=Rd/Cp ) of dry air */
(PID.TID 0000.0001)                 2.857142857142857E-01
(PID.TID 0000.0001)     ;
(PID.TID 0000.0001) atm_Rq = /* water vap. specific vol. anomaly relative to dry air */
(PID.TID 0000.0001)                 6.078000000000000E-01
(PID.TID 0000.0001)     ;
(PID.TID 0000.0001) atm_Po =  /* standard reference pressure ( Pa ) */
(PID.TID 0000.0001)                 1.000000000000000E+05
(PID.TID 0000.0001)     ;
(PID.TID 0000.0001) integr_GeoPot =  /* select how the geopotential is integrated */
(PID.TID 0000.0001)                       2
(PID.TID 0000.0001)     ;
(PID.TID 0000.0001) selectFindRoSurf=  /* select how Surf.Ref. pressure is defined */
(PID.TID 0000.0001)                       0
(PID.TID 0000.0001)     ;
(PID.TID 0000.0001) rhonil =   /* Reference density ( kg/m^3 ) */
(PID.TID 0000.0001)                 1.000000000000000E+00
(PID.TID 0000.0001)     ;
(PID.TID 0000.0001) rhoConst =   /* Reference density ( kg/m^3 ) */
(PID.TID 0000.0001)                 1.000000000000000E+00
(PID.TID 0000.0001)     ;
(PID.TID 0000.0001) rhoConstFresh =   /* Reference density ( kg/m^3 ) */
(PID.TID 0000.0001)                 1.000000000000000E+00
(PID.TID 0000.0001)     ;
(PID.TID 0000.0001) gravity =   /* Gravitational acceleration ( m/s^2 ) */
(PID.TID 0000.0001)                 9.810000000000001E+00
(PID.TID 0000.0001)     ;
(PID.TID 0000.0001) gBaro =   /* Barotropic gravity ( m/s^2 ) */
(PID.TID 0000.0001)                 9.810000000000001E+00
(PID.TID 0000.0001)     ;
(PID.TID 0000.0001) rotationPeriod =   /* Rotation Period ( s ) */
(PID.TID 0000.0001)                 8.640000000000000E+04
(PID.TID 0000.0001)     ;
(PID.TID 0000.0001) omega =   /* Angular velocity ( rad/s ) */
(PID.TID 0000.0001)                 7.272205216643039E-05
(PID.TID 0000.0001)     ;
(PID.TID 0000.0001) f0 =   /* Reference coriolis parameter ( 1/s ) */
(PID.TID 0000.0001)                 1.000000000000000E-04
(PID.TID 0000.0001)     ;
(PID.TID 0000.0001) beta =   /* Beta ( 1/(m.s) ) */
(PID.TID 0000.0001)                 9.999999999999998E-12
(PID.TID 0000.0001)     ;
(PID.TID 0000.0001) freeSurfFac =   /* Implicit free surface factor */
(PID.TID 0000.0001)                 1.000000000000000E+00
(PID.TID 0000.0001)     ;
(PID.TID 0000.0001) implicitFreeSurface =   /* Implicit free surface on/off flag */
(PID.TID 0000.0001)                   T
(PID.TID 0000.0001)     ;
(PID.TID 0000.0001) rigidLid =   /* Rigid lid on/off flag */
(PID.TID 0000.0001)                   F
(PID.TID 0000.0001)     ;
(PID.TID 0000.0001) implicSurfPress =   /* Surface Pressure implicit factor (0-1)*/
(PID.TID 0000.0001)                 1.000000000000000E+00
(PID.TID 0000.0001)     ;
(PID.TID 0000.0001) implicDiv2Dflow =   /* Barot. Flow Div. implicit factor (0-1)*/
(PID.TID 0000.0001)                 1.000000000000000E+00
(PID.TID 0000.0001)     ;
(PID.TID 0000.0001) exactConserv =   /* Exact Volume Conservation on/off flag*/
(PID.TID 0000.0001)                   T
(PID.TID 0000.0001)     ;
(PID.TID 0000.0001) uniformLin_PhiSurf =   /* use uniform Bo_surf on/off flag*/
(PID.TID 0000.0001)                   F
(PID.TID 0000.0001)     ;
(PID.TID 0000.0001) nonlinFreeSurf =   /* Non-linear Free Surf. options (-1,0,1,2,3)*/
(PID.TID 0000.0001)                       4
(PID.TID 0000.0001)     ;
(PID.TID 0000.0001)      -1,0= Off ; 1,2,3= On, 2=+rescale gU,gV, 3=+update cg2d solv.
(PID.TID 0000.0001) hFacInf =   /* lower threshold for hFac (nonlinFreeSurf only)*/
(PID.TID 0000.0001)                 2.000000000000000E-01
(PID.TID 0000.0001)     ;
(PID.TID 0000.0001) hFacSup =   /* upper threshold for hFac (nonlinFreeSurf only)*/
(PID.TID 0000.0001)                 2.000000000000000E+00
(PID.TID 0000.0001)     ;
(PID.TID 0000.0001) select_rStar =   /* r* Coordinate options (not yet implemented)*/
(PID.TID 0000.0001)                       2
(PID.TID 0000.0001)     ;
(PID.TID 0000.0001) useRealFreshWaterFlux =   /* Real Fresh Water Flux on/off flag*/
(PID.TID 0000.0001)                   F
(PID.TID 0000.0001)     ;
(PID.TID 0000.0001) convertFW2Salt = /* convert F.W. Flux to Salt Flux (-1=use local S)(ppt)*/
(PID.TID 0000.0001)                 3.500000000000000E+01
(PID.TID 0000.0001)     ;
(PID.TID 0000.0001) use3Dsolver = /* use 3-D pressure solver on/off flag */
(PID.TID 0000.0001)                   F
(PID.TID 0000.0001)     ;
(PID.TID 0000.0001) nonHydrostatic =  /* Non-Hydrostatic on/off flag */
(PID.TID 0000.0001)                   F
(PID.TID 0000.0001)     ;
(PID.TID 0000.0001) nh_Am2 = /* Non-Hydrostatic terms scaling factor */
(PID.TID 0000.0001)                 1.000000000000000E+00
(PID.TID 0000.0001)     ;
(PID.TID 0000.0001) quasiHydrostatic = /* Quasi-Hydrostatic on/off flag */
(PID.TID 0000.0001)                   F
(PID.TID 0000.0001)     ;
(PID.TID 0000.0001) momStepping =  /* Momentum equation on/off flag */
(PID.TID 0000.0001)                   T
(PID.TID 0000.0001)     ;
(PID.TID 0000.0001) vectorInvariantMomentum= /* Vector-Invariant Momentum on/off */
(PID.TID 0000.0001)                   T
(PID.TID 0000.0001)     ;
(PID.TID 0000.0001) momAdvection =  /* Momentum advection on/off flag */
(PID.TID 0000.0001)                   T
(PID.TID 0000.0001)     ;
(PID.TID 0000.0001) momViscosity =  /* Momentum viscosity on/off flag */
(PID.TID 0000.0001)                   T
(PID.TID 0000.0001)     ;
(PID.TID 0000.0001) momImplVertAdv =/* Momentum implicit vert. advection on/off*/
(PID.TID 0000.0001)                   F
(PID.TID 0000.0001)     ;
(PID.TID 0000.0001) implicitViscosity = /* Implicit viscosity on/off flag */
(PID.TID 0000.0001)                   F
(PID.TID 0000.0001)     ;
(PID.TID 0000.0001) metricTerms =  /* metric-Terms on/off flag */
(PID.TID 0000.0001)                   F
(PID.TID 0000.0001)     ;
(PID.TID 0000.0001) useNHMTerms = /* Non-Hydrostatic Metric-Terms on/off */
(PID.TID 0000.0001)                   F
(PID.TID 0000.0001)     ;
(PID.TID 0000.0001) useConstantF =  /* use Constant f0 Coriolis flag */
(PID.TID 0000.0001)                   F
(PID.TID 0000.0001)     ;
(PID.TID 0000.0001) useBetaPlaneF = /* use Beta-Plane Coriolis flag */
(PID.TID 0000.0001)                   F
(PID.TID 0000.0001)     ;
(PID.TID 0000.0001) useSphereF  =   /* use Spherical Coriolis flag */
(PID.TID 0000.0001)                   T
(PID.TID 0000.0001)     ;
(PID.TID 0000.0001) use3dCoriolis = /* 3-D Coriolis on/off flag */
(PID.TID 0000.0001)                   F
(PID.TID 0000.0001)     ;
(PID.TID 0000.0001) useCoriolis =  /* Coriolis on/off flag */
(PID.TID 0000.0001)                   T
(PID.TID 0000.0001)     ;
(PID.TID 0000.0001) useCDscheme =  /* CD scheme on/off flag */
(PID.TID 0000.0001)                   F
(PID.TID 0000.0001)     ;
(PID.TID 0000.0001) useJamartWetPoints= /* Coriolis WetPoints method flag */
(PID.TID 0000.0001)                   F
(PID.TID 0000.0001)     ;
(PID.TID 0000.0001) useJamartMomAdv= /* V.I. Non-linear terms Jamart flag */
(PID.TID 0000.0001)                   F
(PID.TID 0000.0001)     ;
(PID.TID 0000.0001) SadournyCoriolis= /* Sadourny Coriolis discr. flag */
(PID.TID 0000.0001)                   T
(PID.TID 0000.0001)     ;
(PID.TID 0000.0001) upwindVorticity= /* Upwind bias vorticity flag */
(PID.TID 0000.0001)                   F
(PID.TID 0000.0001)     ;
(PID.TID 0000.0001) useAbsVorticity= /* Work with f+zeta in Coriolis */
(PID.TID 0000.0001)                   T
(PID.TID 0000.0001)     ;
(PID.TID 0000.0001) highOrderVorticity= /* High order interp. of vort. flag */
(PID.TID 0000.0001)                   F
(PID.TID 0000.0001)     ;
(PID.TID 0000.0001) upwindShear= /* Upwind vertical Shear advection flag */
(PID.TID 0000.0001)                   F
(PID.TID 0000.0001)     ;
(PID.TID 0000.0001) selectKEscheme= /* Kinetic Energy scheme selector */
(PID.TID 0000.0001)                       3
(PID.TID 0000.0001)     ;
(PID.TID 0000.0001) momForcing =  /* Momentum forcing on/off flag */
(PID.TID 0000.0001)                   T
(PID.TID 0000.0001)     ;
(PID.TID 0000.0001) momPressureForcing =  /* Momentum pressure term on/off flag */
(PID.TID 0000.0001)                   T
(PID.TID 0000.0001)     ;
(PID.TID 0000.0001) implicitIntGravWave= /* Implicit Internal Gravity Wave flag */
(PID.TID 0000.0001)                   F
(PID.TID 0000.0001)     ;
(PID.TID 0000.0001) staggerTimeStep =   /* Stagger time stepping on/off flag */
(PID.TID 0000.0001)                   T
(PID.TID 0000.0001)     ;
(PID.TID 0000.0001) multiDimAdvection =   /* enable/disable Multi-Dim Advection */
(PID.TID 0000.0001)                   T
(PID.TID 0000.0001)     ;
(PID.TID 0000.0001) useMultiDimAdvec =   /* Multi-Dim Advection is/is-not used */
(PID.TID 0000.0001)                   F
(PID.TID 0000.0001)     ;
(PID.TID 0000.0001) implicitDiffusion =/* Implicit Diffusion on/off flag */
(PID.TID 0000.0001)                   F
(PID.TID 0000.0001)     ;
(PID.TID 0000.0001) tempStepping =  /* Temperature equation on/off flag */
(PID.TID 0000.0001)                   T
(PID.TID 0000.0001)     ;
(PID.TID 0000.0001) tempAdvection=  /* Temperature advection on/off flag */
(PID.TID 0000.0001)                   T
(PID.TID 0000.0001)     ;
(PID.TID 0000.0001) tempImplVertAdv =/* Temp. implicit vert. advection on/off */
(PID.TID 0000.0001)                   F
(PID.TID 0000.0001)     ;
(PID.TID 0000.0001) tempForcing  =  /* Temperature forcing on/off flag */
(PID.TID 0000.0001)                   T
(PID.TID 0000.0001)     ;
(PID.TID 0000.0001) saltStepping =  /* Salinity equation on/off flag */
(PID.TID 0000.0001)                   T
(PID.TID 0000.0001)     ;
(PID.TID 0000.0001) saltAdvection=  /* Salinity advection on/off flag */
(PID.TID 0000.0001)                   T
(PID.TID 0000.0001)     ;
(PID.TID 0000.0001) saltImplVertAdv =/* Sali. implicit vert. advection on/off */
(PID.TID 0000.0001)                   F
(PID.TID 0000.0001)     ;
(PID.TID 0000.0001) saltForcing  =  /* Salinity forcing on/off flag */
(PID.TID 0000.0001)                   T
(PID.TID 0000.0001)     ;
(PID.TID 0000.0001)  readBinaryPrec = /* Precision used for reading binary files */
(PID.TID 0000.0001)                      64
(PID.TID 0000.0001)     ;
(PID.TID 0000.0001) writeBinaryPrec = /* Precision used for writing binary files */
(PID.TID 0000.0001)                      64
(PID.TID 0000.0001)     ;
(PID.TID 0000.0001)  globalFiles = /* write "global" (=not per tile) files */
(PID.TID 0000.0001)                   F
(PID.TID 0000.0001)     ;
(PID.TID 0000.0001)  useSingleCpuIO = /* only master MPI process does I/O */
(PID.TID 0000.0001)                   F
(PID.TID 0000.0001)     ;
(PID.TID 0000.0001)  debugMode  =  /* Debug Mode on/off flag */
(PID.TID 0000.0001)                   F
(PID.TID 0000.0001)     ;
(PID.TID 0000.0001)    debLevA  =  /* 1rst level of debugging */
(PID.TID 0000.0001)                       1
(PID.TID 0000.0001)     ;
(PID.TID 0000.0001)    debLevB  =  /* 2nd  level of debugging */
(PID.TID 0000.0001)                       2
(PID.TID 0000.0001)     ;
(PID.TID 0000.0001)  debugLevel =  /* select debugging level */
(PID.TID 0000.0001)                       1
(PID.TID 0000.0001)     ;
(PID.TID 0000.0001) //
(PID.TID 0000.0001) // Elliptic solver(s) paramters ( PARM02 in namelist )
(PID.TID 0000.0001) //
(PID.TID 0000.0001) cg2dMaxIters =   /* Upper limit on 2d con. grad iterations  */
(PID.TID 0000.0001)                     200
(PID.TID 0000.0001)     ;
(PID.TID 0000.0001) cg2dChkResFreq =   /* 2d con. grad convergence test frequency */
(PID.TID 0000.0001)                       1
(PID.TID 0000.0001)     ;
(PID.TID 0000.0001) cg2dTargetResidual =   /* 2d con. grad target residual  */
(PID.TID 0000.0001)                 1.000000000000000E-07
(PID.TID 0000.0001)     ;
(PID.TID 0000.0001) cg2dTargetResWunit =   /* CG2d target residual [W units] */
(PID.TID 0000.0001)                 1.000000000000001E-17
(PID.TID 0000.0001)     ;
(PID.TID 0000.0001) cg2dPreCondFreq =   /* Freq. for updating cg2d preconditioner */
(PID.TID 0000.0001)                       1
(PID.TID 0000.0001)     ;
(PID.TID 0000.0001) //
(PID.TID 0000.0001) // Time stepping paramters ( PARM03 in namelist )
(PID.TID 0000.0001) //
(PID.TID 0000.0001) nIter0 =   /* Run starting timestep number  */
(PID.TID 0000.0001)                       0
(PID.TID 0000.0001)     ;
(PID.TID 0000.0001) nTimeSteps =   /* Number of timesteps */
(PID.TID 0000.0001)                      15
(PID.TID 0000.0001)     ;
(PID.TID 0000.0001) deltaTmom =   /* Momentum equation timestep ( s ) */
(PID.TID 0000.0001)                 1.200000000000000E+02
(PID.TID 0000.0001)     ;
(PID.TID 0000.0001) deltaTfreesurf =   /* FreeSurface equation timestep ( s ) */
(PID.TID 0000.0001)                 1.200000000000000E+02
(PID.TID 0000.0001)     ;
(PID.TID 0000.0001) dTtracerLev =   /* Tracer equation timestep ( s ) */
(PID.TID 0000.0001)    20 @  1.200000000000000E+02              /* K =  1: 20 */
(PID.TID 0000.0001)     ;
(PID.TID 0000.0001) deltaTClock  =   /* Model clock timestep ( s ) */
(PID.TID 0000.0001)                 1.200000000000000E+02
(PID.TID 0000.0001)     ;
(PID.TID 0000.0001) cAdjFreq =   /* Convective adjustment interval ( s ) */
(PID.TID 0000.0001)                 0.000000000000000E+00
(PID.TID 0000.0001)     ;
(PID.TID 0000.0001) momForcingOutAB = /* =1: take Momentum Forcing out of Adams-Bash. stepping */
(PID.TID 0000.0001)                       1
(PID.TID 0000.0001)     ;
(PID.TID 0000.0001) tracForcingOutAB = /* =1: take T,S,pTr Forcing out of Adams-Bash. stepping */
(PID.TID 0000.0001)                       1
(PID.TID 0000.0001)     ;
(PID.TID 0000.0001) momDissip_In_AB = /* put Dissipation Tendency in Adams-Bash. stepping */
(PID.TID 0000.0001)                   T
(PID.TID 0000.0001)     ;
(PID.TID 0000.0001) doAB_onGtGs = /* apply AB on Tendencies (rather than on T,S)*/
(PID.TID 0000.0001)                   T
(PID.TID 0000.0001)     ;
(PID.TID 0000.0001) abEps =   /* Adams-Bashforth-2 stabilizing weight */
(PID.TID 0000.0001)                 1.000000000000000E-01
(PID.TID 0000.0001)     ;
(PID.TID 0000.0001) baseTime =   /* Model base time ( s ). */
(PID.TID 0000.0001)                 0.000000000000000E+00
(PID.TID 0000.0001)     ;
(PID.TID 0000.0001) startTime =   /* Run start time ( s ). */
(PID.TID 0000.0001)                 0.000000000000000E+00
(PID.TID 0000.0001)     ;
(PID.TID 0000.0001) endTime =   /* Integration ending time ( s ). */
(PID.TID 0000.0001)                 1.800000000000000E+03
(PID.TID 0000.0001)     ;
(PID.TID 0000.0001) pChkPtFreq =   /* Permanent restart/checkpoint file interval ( s ). */
(PID.TID 0000.0001)                 0.000000000000000E+00
(PID.TID 0000.0001)     ;
(PID.TID 0000.0001) chkPtFreq =   /* Rolling restart/checkpoint file interval ( s ). */
(PID.TID 0000.0001)                 0.000000000000000E+00
(PID.TID 0000.0001)     ;
(PID.TID 0000.0001) pickup_write_mdsio =   /* Model IO flag. */
(PID.TID 0000.0001)                   T
(PID.TID 0000.0001)     ;
(PID.TID 0000.0001) pickup_read_mdsio =   /* Model IO flag. */
(PID.TID 0000.0001)                   T
(PID.TID 0000.0001)     ;
(PID.TID 0000.0001) pickup_write_mnc =   /* Model IO flag. */
(PID.TID 0000.0001)                   F
(PID.TID 0000.0001)     ;
(PID.TID 0000.0001) pickup_read_mnc =   /* Model IO flag. */
(PID.TID 0000.0001)                   F
(PID.TID 0000.0001)     ;
(PID.TID 0000.0001) pickup_write_immed =   /* Model IO flag. */
(PID.TID 0000.0001)                   F
(PID.TID 0000.0001)     ;
(PID.TID 0000.0001) dumpFreq =   /* Model state write out interval ( s ). */
(PID.TID 0000.0001)                 0.000000000000000E+00
(PID.TID 0000.0001)     ;
(PID.TID 0000.0001) dumpInitAndLast= /* write out Initial & Last iter. model state */
(PID.TID 0000.0001)                   T
(PID.TID 0000.0001)     ;
(PID.TID 0000.0001) snapshot_mdsio =   /* Model IO flag. */
(PID.TID 0000.0001)                   F
(PID.TID 0000.0001)     ;
(PID.TID 0000.0001) snapshot_mnc =   /* Model IO flag. */
(PID.TID 0000.0001)                   T
(PID.TID 0000.0001)     ;
(PID.TID 0000.0001) monitorFreq =   /* Monitor output interval ( s ). */
(PID.TID 0000.0001)                 1.000000000000000E+00
(PID.TID 0000.0001)     ;
(PID.TID 0000.0001) monitor_stdio =   /* Model IO flag. */
(PID.TID 0000.0001)                   T
(PID.TID 0000.0001)     ;
(PID.TID 0000.0001) monitor_mnc =   /* Model IO flag. */
(PID.TID 0000.0001)                   F
(PID.TID 0000.0001)     ;
(PID.TID 0000.0001) externForcingPeriod =   /* forcing period (s) */
(PID.TID 0000.0001)                 0.000000000000000E+00
(PID.TID 0000.0001)     ;
(PID.TID 0000.0001) externForcingCycle =   /* period of the cyle (s). */
(PID.TID 0000.0001)                 0.000000000000000E+00
(PID.TID 0000.0001)     ;
(PID.TID 0000.0001) tauThetaClimRelax =   /* relaxation time scale (s) */
(PID.TID 0000.0001)                 0.000000000000000E+00
(PID.TID 0000.0001)     ;
(PID.TID 0000.0001) tauSaltClimRelax =   /* relaxation time scale (s) */
(PID.TID 0000.0001)                 0.000000000000000E+00
(PID.TID 0000.0001)     ;
(PID.TID 0000.0001) latBandClimRelax =   /* max. Lat. where relaxation */
(PID.TID 0000.0001)                 1.800000000000000E+02
(PID.TID 0000.0001)     ;
(PID.TID 0000.0001) //
(PID.TID 0000.0001) // Gridding paramters ( PARM04 in namelist )
(PID.TID 0000.0001) //
(PID.TID 0000.0001) usingCartesianGrid =   /* Cartesian coordinates flag ( True / False ) */
(PID.TID 0000.0001)                   F
(PID.TID 0000.0001)     ;
(PID.TID 0000.0001) usingSphericalPolarGrid =   /* Spherical coordinates flag ( True / False ) */
(PID.TID 0000.0001)                   F
(PID.TID 0000.0001)     ;
(PID.TID 0000.0001) usingCylindricalGrid =   /* Spherical coordinates flag ( True / False ) */
(PID.TID 0000.0001)                   F
(PID.TID 0000.0001)     ;
(PID.TID 0000.0001) Ro_SeaLevel =   /* r(1) ( units of r ) */
(PID.TID 0000.0001)                 1.010800000000000E+05
(PID.TID 0000.0001)     ;
(PID.TID 0000.0001) rkSign =   /* index orientation relative to vertical coordinate */
(PID.TID 0000.0001)                -1.000000000000000E+00
(PID.TID 0000.0001)     ;
(PID.TID 0000.0001) horiVertRatio =   /* Ratio on units : Horiz - Vertical */
(PID.TID 0000.0001)                 9.810000000000001E+00
(PID.TID 0000.0001)     ;
(PID.TID 0000.0001) drC =   /* C spacing ( units of r ) */
(PID.TID 0000.0001)                 2.527000000000000E+03,      /* K =  1 */
(PID.TID 0000.0001)    19 @  5.054000000000000E+03              /* K =  2: 20 */
(PID.TID 0000.0001)     ;
(PID.TID 0000.0001) drF =   /* W spacing ( units of r ) */
(PID.TID 0000.0001)    20 @  5.054000000000000E+03              /* K =  1: 20 */
(PID.TID 0000.0001)     ;
(PID.TID 0000.0001) delX =   /* U spacing ( m - cartesian, degrees - spherical ) */
(PID.TID 0000.0001)   192 @  1.234567000000000E+05              /* I =  1:192 */
(PID.TID 0000.0001)     ;
(PID.TID 0000.0001) delY =   /* V spacing ( m - cartesian, degrees - spherical ) */
(PID.TID 0000.0001)    32 @  1.234567000000000E+05              /* J =  1: 32 */
(PID.TID 0000.0001)     ;
(PID.TID 0000.0001) phiMin =    /* South edge (ignored - cartesian, degrees - spherical ) */
(PID.TID 0000.0001)                 0.000000000000000E+00
(PID.TID 0000.0001)     ;
(PID.TID 0000.0001) thetaMin =    /* West edge ( ignored - cartesian, degrees - spherical ) */
(PID.TID 0000.0001)                 0.000000000000000E+00
(PID.TID 0000.0001)     ;
(PID.TID 0000.0001) rSphere =    /* Radius ( ignored - cartesian, m - spherical ) */
(PID.TID 0000.0001)                 6.371000000000000E+06
(PID.TID 0000.0001)     ;
(PID.TID 0000.0001) xcoord =   /* P-point X coord ( m - cartesian, degrees - spherical ) */
(PID.TID 0000.0001)                -4.439521994760536E+01,      /* I =  1 */
(PID.TID 0000.0001)                -4.295641272275883E+01,      /* I =  2 */
(PID.TID 0000.0001)                -4.122055553388957E+01,      /* I =  3 */
(PID.TID 0000.0001)                -3.923446288487304E+01,      /* I =  4 */
(PID.TID 0000.0001)                -3.702585158682200E+01,      /* I =  5 */
(PID.TID 0000.0001)                -3.461179367094151E+01,      /* I =  6 */
(PID.TID 0000.0001)                -3.200434569041793E+01,      /* I =  7 */
(PID.TID 0000.0001)                -2.921355965632675E+01,      /* I =  8 */
(PID.TID 0000.0001)                -2.624932223028290E+01,      /* I =  9 */
(PID.TID 0000.0001)                -2.312261250426344E+01,      /* I = 10 */
(PID.TID 0000.0001)                -1.984640717127058E+01,      /* I = 11 */
(PID.TID 0000.0001)                -1.643630800555134E+01,      /* I = 12 */
(PID.TID 0000.0001)                -1.291089806302069E+01,      /* I = 13 */
(PID.TID 0000.0001)                -9.291807802719402E+00,      /* I = 14 */
(PID.TID 0000.0001)                -5.603475335822332E+00,      /* I = 15 */
(PID.TID 0000.0001)                -1.872608513033445E+00,      /* I = 16 */
(PID.TID 0000.0001)                 1.872608513033445E+00,      /* I = 17 */
(PID.TID 0000.0001)                 5.603475335822332E+00,      /* I = 18 */
(PID.TID 0000.0001)                 9.291807802719402E+00,      /* I = 19 */
(PID.TID 0000.0001)                 1.291089806302069E+01,      /* I = 20 */
(PID.TID 0000.0001)                 1.643630800555134E+01,      /* I = 21 */
(PID.TID 0000.0001)                 1.984640717127058E+01,      /* I = 22 */
(PID.TID 0000.0001)                 2.312261250426344E+01,      /* I = 23 */
(PID.TID 0000.0001)                 2.624932223028290E+01,      /* I = 24 */
(PID.TID 0000.0001)                 2.921355965632675E+01,      /* I = 25 */
(PID.TID 0000.0001)                 3.200434569041793E+01,      /* I = 26 */
(PID.TID 0000.0001)                 3.461179367094151E+01,      /* I = 27 */
(PID.TID 0000.0001)                 3.702585158682200E+01,      /* I = 28 */
(PID.TID 0000.0001)                 3.923446288487304E+01,      /* I = 29 */
(PID.TID 0000.0001)                 4.122055553388957E+01,      /* I = 30 */
(PID.TID 0000.0001)                 4.295641272275883E+01,      /* I = 31 */
(PID.TID 0000.0001)                 4.439521994760536E+01,      /* I = 32 */
(PID.TID 0000.0001)                 4.560478005239465E+01,      /* I = 33 */
(PID.TID 0000.0001)                 4.704358727724117E+01,      /* I = 34 */
(PID.TID 0000.0001)                 4.877944446611043E+01,      /* I = 35 */
(PID.TID 0000.0001)                 5.076553711512697E+01,      /* I = 36 */
(PID.TID 0000.0001)                 5.297414841317801E+01,      /* I = 37 */
(PID.TID 0000.0001)                 5.538820632905850E+01,      /* I = 38 */
(PID.TID 0000.0001)                 5.799565430958209E+01,      /* I = 39 */
(PID.TID 0000.0001)                 6.078644034367325E+01,      /* I = 40 */
(PID.TID 0000.0001)                 6.375067776971711E+01,      /* I = 41 */
(PID.TID 0000.0001)                 6.687738749573657E+01,      /* I = 42 */
(PID.TID 0000.0001)                 7.015359282872943E+01,      /* I = 43 */
(PID.TID 0000.0001)                 7.356369199444866E+01,      /* I = 44 */
(PID.TID 0000.0001)                 7.708910193697932E+01,      /* I = 45 */
(PID.TID 0000.0001)                 8.070819219728060E+01,      /* I = 46 */
(PID.TID 0000.0001)                 8.439652466417766E+01,      /* I = 47 */
(PID.TID 0000.0001)                 8.812739148696656E+01,      /* I = 48 */
(PID.TID 0000.0001)                 9.187260851303344E+01,      /* I = 49 */
(PID.TID 0000.0001)                 9.560347533582234E+01,      /* I = 50 */
(PID.TID 0000.0001)                 9.929180780271940E+01,      /* I = 51 */
(PID.TID 0000.0001)                 1.029108980630207E+02,      /* I = 52 */
(PID.TID 0000.0001)                 1.064363080055513E+02,      /* I = 53 */
(PID.TID 0000.0001)                 1.098464071712706E+02,      /* I = 54 */
(PID.TID 0000.0001)                 1.131226125042634E+02,      /* I = 55 */
(PID.TID 0000.0001)                 1.162493222302829E+02,      /* I = 56 */
(PID.TID 0000.0001)                 1.192135596563268E+02,      /* I = 57 */
(PID.TID 0000.0001)                 1.220043456904179E+02,      /* I = 58 */
(PID.TID 0000.0001)                 1.246117936709415E+02,      /* I = 59 */
(PID.TID 0000.0001)                 1.270258515868220E+02,      /* I = 60 */
(PID.TID 0000.0001)                 1.292344628848730E+02,      /* I = 61 */
(PID.TID 0000.0001)                 1.312205555338896E+02,      /* I = 62 */
(PID.TID 0000.0001)                 1.329564127227588E+02,      /* I = 63 */
(PID.TID 0000.0001)                 1.343952199476053E+02,      /* I = 64 */
(PID.TID 0000.0001)                 4.500000000000000E+01,      /* I = 65 */
(PID.TID 0000.0001)                 4.620805468796297E+01,      /* I = 66 */
(PID.TID 0000.0001)                 4.781369642513039E+01,      /* I = 67 */
(PID.TID 0000.0001)                 4.971767671143929E+01,      /* I = 68 */
(PID.TID 0000.0001)                 5.187738319787235E+01,      /* I = 69 */
(PID.TID 0000.0001)                 5.427004371478710E+01,      /* I = 70 */
(PID.TID 0000.0001)                 5.688128325334060E+01,      /* I = 71 */
(PID.TID 0000.0001)                 5.970018167786760E+01,      /* I = 72 */
(PID.TID 0000.0001)                 6.271654991792347E+01,      /* I = 73 */
(PID.TID 0000.0001)                 6.591914604853015E+01,      /* I = 74 */
(PID.TID 0000.0001)                 6.929439270484149E+01,      /* I = 75 */
(PID.TID 0000.0001)                 7.282545807616151E+01,      /* I = 76 */
(PID.TID 0000.0001)                 7.649168830618933E+01,      /* I = 77 */
(PID.TID 0000.0001)                 8.026842803787176E+01,      /* I = 78 */
(PID.TID 0000.0001)                 8.412726743124185E+01,      /* I = 79 */
(PID.TID 0000.0001)                 8.803672008547504E+01,      /* I = 80 */
(PID.TID 0000.0001)                 9.196327991452496E+01,      /* I = 81 */
(PID.TID 0000.0001)                 9.587273256875815E+01,      /* I = 82 */
(PID.TID 0000.0001)                 9.973157196212824E+01,      /* I = 83 */
(PID.TID 0000.0001)                 1.035083116938107E+02,      /* I = 84 */
(PID.TID 0000.0001)                 1.071745419238385E+02,      /* I = 85 */
(PID.TID 0000.0001)                 1.107056072951585E+02,      /* I = 86 */
(PID.TID 0000.0001)                 1.140808539514699E+02,      /* I = 87 */
(PID.TID 0000.0001)                 1.172834500820765E+02,      /* I = 88 */
(PID.TID 0000.0001)                 1.202998183221324E+02,      /* I = 89 */
(PID.TID 0000.0001)                 1.231187167466594E+02,      /* I = 90 */
(PID.TID 0000.0001)                 1.257299562852129E+02,      /* I = 91 */
(PID.TID 0000.0001)                 1.281226168021277E+02,      /* I = 92 */
(PID.TID 0000.0001)                 1.302823232885607E+02,      /* I = 93 */
(PID.TID 0000.0001)                 1.321863035748696E+02,      /* I = 94 */
(PID.TID 0000.0001)                 1.337919453120370E+02,      /* I = 95 */
(PID.TID 0000.0001)                 1.350000000000000E+02,      /* I = 96 */
(PID.TID 0000.0001)                 1.356047800523947E+02,      /* I = 97 */
(PID.TID 0000.0001)                 1.358367907661329E+02,      /* I = 98 */
(PID.TID 0000.0001)                 1.359720382181193E+02,      /* I = 99 */
(PID.TID 0000.0001)                 1.360654656901789E+02,      /* I =100 */
(PID.TID 0000.0001)                 1.361344533147043E+02,      /* I =101 */
(PID.TID 0000.0001)                 1.361871219420981E+02,      /* I =102 */
(PID.TID 0000.0001)                 1.362280794509603E+02,      /* I =103 */
(PID.TID 0000.0001)                 1.362602511071934E+02,      /* I =104 */
(PID.TID 0000.0001)                 1.362856280326734E+02,      /* I =105 */
(PID.TID 0000.0001)                 1.363056266270901E+02,      /* I =106 */
(PID.TID 0000.0001)                 1.363212817739446E+02,      /* I =107 */
(PID.TID 0000.0001)                 1.363333595910255E+02,      /* I =108 */
(PID.TID 0000.0001)                 1.363424272425760E+02,      /* I =109 */
(PID.TID 0000.0001)                 1.363488978790713E+02,      /* I =110 */
(PID.TID 0000.0001)                 1.363530600590580E+02,      /* I =111 */
(PID.TID 0000.0001)     2 @  1.363550967500717E+02,             /* I =112:113 */
(PID.TID 0000.0001)                 1.363530600590580E+02,      /* I =114 */
(PID.TID 0000.0001)                 1.363488978790713E+02,      /* I =115 */
(PID.TID 0000.0001)                 1.363424272425760E+02,      /* I =116 */
(PID.TID 0000.0001)                 1.363333595910255E+02,      /* I =117 */
(PID.TID 0000.0001)                 1.363212817739446E+02,      /* I =118 */
(PID.TID 0000.0001)                 1.363056266270901E+02,      /* I =119 */
(PID.TID 0000.0001)                 1.362856280326734E+02,      /* I =120 */
(PID.TID 0000.0001)                 1.362602511071934E+02,      /* I =121 */
(PID.TID 0000.0001)                 1.362280794509603E+02,      /* I =122 */
(PID.TID 0000.0001)                 1.361871219420981E+02,      /* I =123 */
(PID.TID 0000.0001)                 1.361344533147043E+02,      /* I =124 */
(PID.TID 0000.0001)                 1.360654656901789E+02,      /* I =125 */
(PID.TID 0000.0001)                 1.359720382181193E+02,      /* I =126 */
(PID.TID 0000.0001)                 1.358367907661329E+02,      /* I =127 */
(PID.TID 0000.0001)                 1.356047800523947E+02,      /* I =128 */
(PID.TID 0000.0001)                -1.343952199476053E+02,      /* I =129 */
(PID.TID 0000.0001)                -1.341632092338671E+02,      /* I =130 */
(PID.TID 0000.0001)                -1.340279617818807E+02,      /* I =131 */
(PID.TID 0000.0001)                -1.339345343098211E+02,      /* I =132 */
(PID.TID 0000.0001)                -1.338655466852958E+02,      /* I =133 */
(PID.TID 0000.0001)                -1.338128780579019E+02,      /* I =134 */
(PID.TID 0000.0001)                -1.337719205490397E+02,      /* I =135 */
(PID.TID 0000.0001)                -1.337397488928066E+02,      /* I =136 */
(PID.TID 0000.0001)                -1.337143719673266E+02,      /* I =137 */
(PID.TID 0000.0001)                -1.336943733729099E+02,      /* I =138 */
(PID.TID 0000.0001)                -1.336787182260554E+02,      /* I =139 */
(PID.TID 0000.0001)                -1.336666404089745E+02,      /* I =140 */
(PID.TID 0000.0001)                -1.336575727574240E+02,      /* I =141 */
(PID.TID 0000.0001)                -1.336511021209287E+02,      /* I =142 */
(PID.TID 0000.0001)                -1.336469399409420E+02,      /* I =143 */
(PID.TID 0000.0001)     2 @ -1.336449032499283E+02,             /* I =144:145 */
(PID.TID 0000.0001)                -1.336469399409420E+02,      /* I =146 */
(PID.TID 0000.0001)                -1.336511021209287E+02,      /* I =147 */
(PID.TID 0000.0001)                -1.336575727574240E+02,      /* I =148 */
(PID.TID 0000.0001)                -1.336666404089745E+02,      /* I =149 */
(PID.TID 0000.0001)                -1.336787182260554E+02,      /* I =150 */
(PID.TID 0000.0001)                -1.336943733729099E+02,      /* I =151 */
(PID.TID 0000.0001)                -1.337143719673266E+02,      /* I =152 */
(PID.TID 0000.0001)                -1.337397488928066E+02,      /* I =153 */
(PID.TID 0000.0001)                -1.337719205490397E+02,      /* I =154 */
(PID.TID 0000.0001)                -1.338128780579019E+02,      /* I =155 */
(PID.TID 0000.0001)                -1.338655466852958E+02,      /* I =156 */
(PID.TID 0000.0001)                -1.339345343098211E+02,      /* I =157 */
(PID.TID 0000.0001)                -1.340279617818807E+02,      /* I =158 */
(PID.TID 0000.0001)                -1.341632092338671E+02,      /* I =159 */
(PID.TID 0000.0001)                -1.343952199476053E+02,      /* I =160 */
(PID.TID 0000.0001)                -1.350000000000000E+02,      /* I =161 */
(PID.TID 0000.0001)                -1.362080546879630E+02,      /* I =162 */
(PID.TID 0000.0001)                -1.378136964251304E+02,      /* I =163 */
(PID.TID 0000.0001)                -1.397176767114393E+02,      /* I =164 */
(PID.TID 0000.0001)                -1.418773831978724E+02,      /* I =165 */
(PID.TID 0000.0001)                -1.442700437147871E+02,      /* I =166 */
(PID.TID 0000.0001)                -1.468812832533406E+02,      /* I =167 */
(PID.TID 0000.0001)                -1.497001816778676E+02,      /* I =168 */
(PID.TID 0000.0001)                -1.527165499179235E+02,      /* I =169 */
(PID.TID 0000.0001)                -1.559191460485302E+02,      /* I =170 */
(PID.TID 0000.0001)                -1.592943927048415E+02,      /* I =171 */
(PID.TID 0000.0001)                -1.628254580761615E+02,      /* I =172 */
(PID.TID 0000.0001)                -1.664916883061893E+02,      /* I =173 */
(PID.TID 0000.0001)                -1.702684280378718E+02,      /* I =174 */
(PID.TID 0000.0001)                -1.741272674312418E+02,      /* I =175 */
(PID.TID 0000.0001)                -1.780367200854751E+02,      /* I =176 */
(PID.TID 0000.0001)                 1.780367200854751E+02,      /* I =177 */
(PID.TID 0000.0001)                 1.741272674312418E+02,      /* I =178 */
(PID.TID 0000.0001)                 1.702684280378718E+02,      /* I =179 */
(PID.TID 0000.0001)                 1.664916883061893E+02,      /* I =180 */
(PID.TID 0000.0001)                 1.628254580761615E+02,      /* I =181 */
(PID.TID 0000.0001)                 1.592943927048415E+02,      /* I =182 */
(PID.TID 0000.0001)                 1.559191460485302E+02,      /* I =183 */
(PID.TID 0000.0001)                 1.527165499179235E+02,      /* I =184 */
(PID.TID 0000.0001)                 1.497001816778676E+02,      /* I =185 */
(PID.TID 0000.0001)                 1.468812832533406E+02,      /* I =186 */
(PID.TID 0000.0001)                 1.442700437147871E+02,      /* I =187 */
(PID.TID 0000.0001)                 1.418773831978724E+02,      /* I =188 */
(PID.TID 0000.0001)                 1.397176767114393E+02,      /* I =189 */
(PID.TID 0000.0001)                 1.378136964251304E+02,      /* I =190 */
(PID.TID 0000.0001)                 1.362080546879630E+02,      /* I =191 */
(PID.TID 0000.0001)                 1.350000000000000E+02       /* I =192 */
(PID.TID 0000.0001)     ;
(PID.TID 0000.0001) ycoord =   /* P-point Y coord ( m - cartesian, degrees - spherical ) */
(PID.TID 0000.0001)                -3.497677942598243E+01,      /* J =  1 */
(PID.TID 0000.0001)                -3.374005967394886E+01,      /* J =  2 */
(PID.TID 0000.0001)                -3.220655175667454E+01,      /* J =  3 */
(PID.TID 0000.0001)                -3.045756348838641E+01,      /* J =  4 */
(PID.TID 0000.0001)                -2.853728129852918E+01,      /* J =  5 */
(PID.TID 0000.0001)                -2.647426640173173E+01,      /* J =  6 */
(PID.TID 0000.0001)                -2.428936657094636E+01,      /* J =  7 */
(PID.TID 0000.0001)                -2.199915808312262E+01,      /* J =  8 */
(PID.TID 0000.0001)                -1.961768597440146E+01,      /* J =  9 */
(PID.TID 0000.0001)                -1.715743888281371E+01,      /* J = 10 */
(PID.TID 0000.0001)                -1.462993396899330E+01,      /* J = 11 */
(PID.TID 0000.0001)                -1.204608340464756E+01,      /* J = 12 */
(PID.TID 0000.0001)                -9.416429130284818E+00,      /* J = 13 */
(PID.TID 0000.0001)                -6.751293662992216E+00,      /* J = 14 */
(PID.TID 0000.0001)                -4.060875511835959E+00,      /* J = 15 */
(PID.TID 0000.0001)                -1.355307764409121E+00,      /* J = 16 */
(PID.TID 0000.0001)                 1.355307764409121E+00,      /* J = 17 */
(PID.TID 0000.0001)                 4.060875511835959E+00,      /* J = 18 */
(PID.TID 0000.0001)                 6.751293662992216E+00,      /* J = 19 */
(PID.TID 0000.0001)                 9.416429130284818E+00,      /* J = 20 */
(PID.TID 0000.0001)                 1.204608340464756E+01,      /* J = 21 */
(PID.TID 0000.0001)                 1.462993396899330E+01,      /* J = 22 */
(PID.TID 0000.0001)                 1.715743888281371E+01,      /* J = 23 */
(PID.TID 0000.0001)                 1.961768597440146E+01,      /* J = 24 */
(PID.TID 0000.0001)                 2.199915808312262E+01,      /* J = 25 */
(PID.TID 0000.0001)                 2.428936657094636E+01,      /* J = 26 */
(PID.TID 0000.0001)                 2.647426640173173E+01,      /* J = 27 */
(PID.TID 0000.0001)                 2.853728129852918E+01,      /* J = 28 */
(PID.TID 0000.0001)                 3.045756348838641E+01,      /* J = 29 */
(PID.TID 0000.0001)                 3.220655175667454E+01,      /* J = 30 */
(PID.TID 0000.0001)                 3.374005967394886E+01,      /* J = 31 */
(PID.TID 0000.0001)                 3.497677942598243E+01       /* J = 32 */
(PID.TID 0000.0001)     ;
(PID.TID 0000.0001) rcoord =   /* P-point R coordinate (  units of r ) */
(PID.TID 0000.0001)                 9.855300000000000E+04,      /* K =  1 */
(PID.TID 0000.0001)                 9.349900000000000E+04,      /* K =  2 */
(PID.TID 0000.0001)                 8.844500000000000E+04,      /* K =  3 */
(PID.TID 0000.0001)                 8.339100000000000E+04,      /* K =  4 */
(PID.TID 0000.0001)                 7.833700000000000E+04,      /* K =  5 */
(PID.TID 0000.0001)                 7.328300000000000E+04,      /* K =  6 */
(PID.TID 0000.0001)                 6.822900000000000E+04,      /* K =  7 */
(PID.TID 0000.0001)                 6.317500000000000E+04,      /* K =  8 */
(PID.TID 0000.0001)                 5.812100000000000E+04,      /* K =  9 */
(PID.TID 0000.0001)                 5.306700000000000E+04,      /* K = 10 */
(PID.TID 0000.0001)                 4.801300000000000E+04,      /* K = 11 */
(PID.TID 0000.0001)                 4.295900000000000E+04,      /* K = 12 */
(PID.TID 0000.0001)                 3.790500000000000E+04,      /* K = 13 */
(PID.TID 0000.0001)                 3.285100000000000E+04,      /* K = 14 */
(PID.TID 0000.0001)                 2.779700000000000E+04,      /* K = 15 */
(PID.TID 0000.0001)                 2.274300000000000E+04,      /* K = 16 */
(PID.TID 0000.0001)                 1.768900000000000E+04,      /* K = 17 */
(PID.TID 0000.0001)                 1.263500000000000E+04,      /* K = 18 */
(PID.TID 0000.0001)                 7.581000000000000E+03,      /* K = 19 */
(PID.TID 0000.0001)                 2.527000000000000E+03       /* K = 20 */
(PID.TID 0000.0001)     ;
(PID.TID 0000.0001) rF =   /* W-Interf. R coordinate (  units of r ) */
(PID.TID 0000.0001)                 1.010800000000000E+05,      /* K =  1 */
(PID.TID 0000.0001)                 9.602600000000000E+04,      /* K =  2 */
(PID.TID 0000.0001)                 9.097200000000000E+04,      /* K =  3 */
(PID.TID 0000.0001)                 8.591800000000000E+04,      /* K =  4 */
(PID.TID 0000.0001)                 8.086400000000000E+04,      /* K =  5 */
(PID.TID 0000.0001)                 7.581000000000000E+04,      /* K =  6 */
(PID.TID 0000.0001)                 7.075600000000000E+04,      /* K =  7 */
(PID.TID 0000.0001)                 6.570200000000000E+04,      /* K =  8 */
(PID.TID 0000.0001)                 6.064800000000000E+04,      /* K =  9 */
(PID.TID 0000.0001)                 5.559400000000000E+04,      /* K = 10 */
(PID.TID 0000.0001)                 5.054000000000000E+04,      /* K = 11 */
(PID.TID 0000.0001)                 4.548600000000000E+04,      /* K = 12 */
(PID.TID 0000.0001)                 4.043200000000000E+04,      /* K = 13 */
(PID.TID 0000.0001)                 3.537800000000000E+04,      /* K = 14 */
(PID.TID 0000.0001)                 3.032400000000000E+04,      /* K = 15 */
(PID.TID 0000.0001)                 2.527000000000000E+04,      /* K = 16 */
(PID.TID 0000.0001)                 2.021600000000000E+04,      /* K = 17 */
(PID.TID 0000.0001)                 1.516200000000000E+04,      /* K = 18 */
(PID.TID 0000.0001)                 1.010800000000000E+04,      /* K = 19 */
(PID.TID 0000.0001)                 5.054000000000000E+03,      /* K = 20 */
(PID.TID 0000.0001)                 0.000000000000000E+00       /* K = 21 */
(PID.TID 0000.0001)     ;
(PID.TID 0000.0001) dBdrRef = /* Vertical gradient of reference boyancy [(m/s/r)^2)] */
(PID.TID 0000.0001)                 0.000000000000000E+00,      /* K =  1 */
(PID.TID 0000.0001)                 1.168695101832678E-06,      /* K =  2 */
(PID.TID 0000.0001)                 1.214731933662585E-06,      /* K =  3 */
(PID.TID 0000.0001)                 1.265376800132251E-06,      /* K =  4 */
(PID.TID 0000.0001)                 1.982108400861510E-06,      /* K =  5 */
(PID.TID 0000.0001)                 2.075677388535635E-06,      /* K =  6 */
(PID.TID 0000.0001)                 2.180603685167407E-06,      /* K =  7 */
(PID.TID 0000.0001)                 2.299237756774469E-06,      /* K =  8 */
(PID.TID 0000.0001)                 2.434651197433198E-06,      /* K =  9 */
(PID.TID 0000.0001)                 2.590943086329595E-06,      /* K = 10 */
(PID.TID 0000.0001)                 2.773719906973164E-06,      /* K = 11 */
(PID.TID 0000.0001)                 2.990877444713175E-06,      /* K = 12 */
(PID.TID 0000.0001)                 3.796258619174569E-06,      /* K = 13 */
(PID.TID 0000.0001)                 4.177197220701854E-06,      /* K = 14 */
(PID.TID 0000.0001)                 5.998085821035755E-06,      /* K = 15 */
(PID.TID 0000.0001)                 6.836650610103146E-06,      /* K = 16 */
(PID.TID 0000.0001)                 1.962224720100582E-05,      /* K = 17 */
(PID.TID 0000.0001)                 2.855207349352877E-05,      /* K = 18 */
(PID.TID 0000.0001)                 1.182300266773325E-04,      /* K = 19 */
(PID.TID 0000.0001)                 2.229643522577340E-04       /* K = 20 */
(PID.TID 0000.0001)     ;
(PID.TID 0000.0001) dxF =  /* dxF(:,1,:,1) ( m - cartesian, degrees - spherical ) */
(PID.TID 0000.0001)                 1.202082051331828E+05,      /* I =  1 */
(PID.TID 0000.0001)                 1.563594089971120E+05,      /* I =  2 */
(PID.TID 0000.0001)                 1.835530058121492E+05,      /* I =  3 */
(PID.TID 0000.0001)                 2.045883481718707E+05,      /* I =  4 */
(PID.TID 0000.0001)                 2.218350349844185E+05,      /* I =  5 */
(PID.TID 0000.0001)                 2.364352994647058E+05,      /* I =  6 */
(PID.TID 0000.0001)                 2.490022710862746E+05,      /* I =  7 */
(PID.TID 0000.0001)                 2.598919724358304E+05,      /* I =  8 */
(PID.TID 0000.0001)                 2.693210245495156E+05,      /* I =  9 */
(PID.TID 0000.0001)                 2.774243179696503E+05,      /* I = 10 */
(PID.TID 0000.0001)                 2.842862532064524E+05,      /* I = 11 */
(PID.TID 0000.0001)                 2.899590699694043E+05,      /* I = 12 */
(PID.TID 0000.0001)                 2.944742915095688E+05,      /* I = 13 */
(PID.TID 0000.0001)                 2.978501920522794E+05,      /* I = 14 */
(PID.TID 0000.0001)                 3.000967749619962E+05,      /* I = 15 */
(PID.TID 0000.0001)     2 @  3.012190981969055E+05,             /* I = 16: 17 */
(PID.TID 0000.0001)                 3.000967749619962E+05,      /* I = 18 */
(PID.TID 0000.0001)                 2.978501920522794E+05,      /* I = 19 */
(PID.TID 0000.0001)                 2.944742915095688E+05,      /* I = 20 */
(PID.TID 0000.0001)                 2.899590699694043E+05,      /* I = 21 */
(PID.TID 0000.0001)                 2.842862532064524E+05,      /* I = 22 */
(PID.TID 0000.0001)                 2.774243179696503E+05,      /* I = 23 */
(PID.TID 0000.0001)                 2.693210245495156E+05,      /* I = 24 */
(PID.TID 0000.0001)                 2.598919724358304E+05,      /* I = 25 */
(PID.TID 0000.0001)                 2.490022710862746E+05,      /* I = 26 */
(PID.TID 0000.0001)                 2.364352994647058E+05,      /* I = 27 */
(PID.TID 0000.0001)                 2.218350349844185E+05,      /* I = 28 */
(PID.TID 0000.0001)                 2.045883481718707E+05,      /* I = 29 */
(PID.TID 0000.0001)                 1.835530058121492E+05,      /* I = 30 */
(PID.TID 0000.0001)                 1.563594089971120E+05,      /* I = 31 */
(PID.TID 0000.0001)     2 @  1.202082051331828E+05,             /* I = 32: 33 */
(PID.TID 0000.0001)                 1.563594089971120E+05,      /* I = 34 */
(PID.TID 0000.0001)                 1.835530058121492E+05,      /* I = 35 */
(PID.TID 0000.0001)                 2.045883481718707E+05,      /* I = 36 */
(PID.TID 0000.0001)                 2.218350349844185E+05,      /* I = 37 */
(PID.TID 0000.0001)                 2.364352994647058E+05,      /* I = 38 */
(PID.TID 0000.0001)                 2.490022710862746E+05,      /* I = 39 */
(PID.TID 0000.0001)                 2.598919724358304E+05,      /* I = 40 */
(PID.TID 0000.0001)                 2.693210245495156E+05,      /* I = 41 */
(PID.TID 0000.0001)                 2.774243179696503E+05,      /* I = 42 */
(PID.TID 0000.0001)                 2.842862532064524E+05,      /* I = 43 */
(PID.TID 0000.0001)                 2.899590699694043E+05,      /* I = 44 */
(PID.TID 0000.0001)                 2.944742915095688E+05,      /* I = 45 */
(PID.TID 0000.0001)                 2.978501920522794E+05,      /* I = 46 */
(PID.TID 0000.0001)                 3.000967749619962E+05,      /* I = 47 */
(PID.TID 0000.0001)     2 @  3.012190981969055E+05,             /* I = 48: 49 */
(PID.TID 0000.0001)                 3.000967749619962E+05,      /* I = 50 */
(PID.TID 0000.0001)                 2.978501920522794E+05,      /* I = 51 */
(PID.TID 0000.0001)                 2.944742915095688E+05,      /* I = 52 */
(PID.TID 0000.0001)                 2.899590699694043E+05,      /* I = 53 */
(PID.TID 0000.0001)                 2.842862532064524E+05,      /* I = 54 */
(PID.TID 0000.0001)                 2.774243179696503E+05,      /* I = 55 */
(PID.TID 0000.0001)                 2.693210245495156E+05,      /* I = 56 */
(PID.TID 0000.0001)                 2.598919724358304E+05,      /* I = 57 */
(PID.TID 0000.0001)                 2.490022710862746E+05,      /* I = 58 */
(PID.TID 0000.0001)                 2.364352994647058E+05,      /* I = 59 */
(PID.TID 0000.0001)                 2.218350349844185E+05,      /* I = 60 */
(PID.TID 0000.0001)                 2.045883481718707E+05,      /* I = 61 */
(PID.TID 0000.0001)                 1.835530058121492E+05,      /* I = 62 */
(PID.TID 0000.0001)                 1.563594089971120E+05,      /* I = 63 */
(PID.TID 0000.0001)     2 @  1.202082051331828E+05,             /* I = 64: 65 */
(PID.TID 0000.0001)                 1.563594089971120E+05,      /* I = 66 */
(PID.TID 0000.0001)                 1.835530058121492E+05,      /* I = 67 */
(PID.TID 0000.0001)                 2.045883481718707E+05,      /* I = 68 */
(PID.TID 0000.0001)                 2.218350349844185E+05,      /* I = 69 */
(PID.TID 0000.0001)                 2.364352994647058E+05,      /* I = 70 */
(PID.TID 0000.0001)                 2.490022710862746E+05,      /* I = 71 */
(PID.TID 0000.0001)                 2.598919724358304E+05,      /* I = 72 */
(PID.TID 0000.0001)                 2.693210245495156E+05,      /* I = 73 */
(PID.TID 0000.0001)                 2.774243179696503E+05,      /* I = 74 */
(PID.TID 0000.0001)                 2.842862532064524E+05,      /* I = 75 */
(PID.TID 0000.0001)                 2.899590699694043E+05,      /* I = 76 */
(PID.TID 0000.0001)                 2.944742915095688E+05,      /* I = 77 */
(PID.TID 0000.0001)                 2.978501920522794E+05,      /* I = 78 */
(PID.TID 0000.0001)                 3.000967749619962E+05,      /* I = 79 */
(PID.TID 0000.0001)     2 @  3.012190981969055E+05,             /* I = 80: 81 */
(PID.TID 0000.0001)                 3.000967749619962E+05,      /* I = 82 */
(PID.TID 0000.0001)                 2.978501920522794E+05,      /* I = 83 */
(PID.TID 0000.0001)                 2.944742915095688E+05,      /* I = 84 */
(PID.TID 0000.0001)                 2.899590699694043E+05,      /* I = 85 */
(PID.TID 0000.0001)                 2.842862532064524E+05,      /* I = 86 */
(PID.TID 0000.0001)                 2.774243179696503E+05,      /* I = 87 */
(PID.TID 0000.0001)                 2.693210245495156E+05,      /* I = 88 */
(PID.TID 0000.0001)                 2.598919724358304E+05,      /* I = 89 */
(PID.TID 0000.0001)                 2.490022710862746E+05,      /* I = 90 */
(PID.TID 0000.0001)                 2.364352994647058E+05,      /* I = 91 */
(PID.TID 0000.0001)                 2.218350349844185E+05,      /* I = 92 */
(PID.TID 0000.0001)                 2.045883481718707E+05,      /* I = 93 */
(PID.TID 0000.0001)                 1.835530058121492E+05,      /* I = 94 */
(PID.TID 0000.0001)                 1.563594089971120E+05,      /* I = 95 */
(PID.TID 0000.0001)     2 @  1.202082051331828E+05,             /* I = 96: 97 */
(PID.TID 0000.0001)                 1.563594089971120E+05,      /* I = 98 */
(PID.TID 0000.0001)                 1.835530058121492E+05,      /* I = 99 */
(PID.TID 0000.0001)                 2.045883481718707E+05,      /* I =100 */
(PID.TID 0000.0001)                 2.218350349844185E+05,      /* I =101 */
(PID.TID 0000.0001)                 2.364352994647058E+05,      /* I =102 */
(PID.TID 0000.0001)                 2.490022710862746E+05,      /* I =103 */
(PID.TID 0000.0001)                 2.598919724358304E+05,      /* I =104 */
(PID.TID 0000.0001)                 2.693210245495156E+05,      /* I =105 */
(PID.TID 0000.0001)                 2.774243179696503E+05,      /* I =106 */
(PID.TID 0000.0001)                 2.842862532064524E+05,      /* I =107 */
(PID.TID 0000.0001)                 2.899590699694043E+05,      /* I =108 */
(PID.TID 0000.0001)                 2.944742915095688E+05,      /* I =109 */
(PID.TID 0000.0001)                 2.978501920522794E+05,      /* I =110 */
(PID.TID 0000.0001)                 3.000967749619962E+05,      /* I =111 */
(PID.TID 0000.0001)     2 @  3.012190981969055E+05,             /* I =112:113 */
(PID.TID 0000.0001)                 3.000967749619962E+05,      /* I =114 */
(PID.TID 0000.0001)                 2.978501920522794E+05,      /* I =115 */
(PID.TID 0000.0001)                 2.944742915095688E+05,      /* I =116 */
(PID.TID 0000.0001)                 2.899590699694043E+05,      /* I =117 */
(PID.TID 0000.0001)                 2.842862532064524E+05,      /* I =118 */
(PID.TID 0000.0001)                 2.774243179696503E+05,      /* I =119 */
(PID.TID 0000.0001)                 2.693210245495156E+05,      /* I =120 */
(PID.TID 0000.0001)                 2.598919724358304E+05,      /* I =121 */
(PID.TID 0000.0001)                 2.490022710862746E+05,      /* I =122 */
(PID.TID 0000.0001)                 2.364352994647058E+05,      /* I =123 */
(PID.TID 0000.0001)                 2.218350349844185E+05,      /* I =124 */
(PID.TID 0000.0001)                 2.045883481718707E+05,      /* I =125 */
(PID.TID 0000.0001)                 1.835530058121492E+05,      /* I =126 */
(PID.TID 0000.0001)                 1.563594089971120E+05,      /* I =127 */
(PID.TID 0000.0001)     2 @  1.202082051331828E+05,             /* I =128:129 */
(PID.TID 0000.0001)                 1.563594089971120E+05,      /* I =130 */
(PID.TID 0000.0001)                 1.835530058121492E+05,      /* I =131 */
(PID.TID 0000.0001)                 2.045883481718707E+05,      /* I =132 */
(PID.TID 0000.0001)                 2.218350349844185E+05,      /* I =133 */
(PID.TID 0000.0001)                 2.364352994647058E+05,      /* I =134 */
(PID.TID 0000.0001)                 2.490022710862746E+05,      /* I =135 */
(PID.TID 0000.0001)                 2.598919724358304E+05,      /* I =136 */
(PID.TID 0000.0001)                 2.693210245495156E+05,      /* I =137 */
(PID.TID 0000.0001)                 2.774243179696503E+05,      /* I =138 */
(PID.TID 0000.0001)                 2.842862532064524E+05,      /* I =139 */
(PID.TID 0000.0001)                 2.899590699694043E+05,      /* I =140 */
(PID.TID 0000.0001)                 2.944742915095688E+05,      /* I =141 */
(PID.TID 0000.0001)                 2.978501920522794E+05,      /* I =142 */
(PID.TID 0000.0001)                 3.000967749619962E+05,      /* I =143 */
(PID.TID 0000.0001)     2 @  3.012190981969055E+05,             /* I =144:145 */
(PID.TID 0000.0001)                 3.000967749619962E+05,      /* I =146 */
(PID.TID 0000.0001)                 2.978501920522794E+05,      /* I =147 */
(PID.TID 0000.0001)                 2.944742915095688E+05,      /* I =148 */
(PID.TID 0000.0001)                 2.899590699694043E+05,      /* I =149 */
(PID.TID 0000.0001)                 2.842862532064524E+05,      /* I =150 */
(PID.TID 0000.0001)                 2.774243179696503E+05,      /* I =151 */
(PID.TID 0000.0001)                 2.693210245495156E+05,      /* I =152 */
(PID.TID 0000.0001)                 2.598919724358304E+05,      /* I =153 */
(PID.TID 0000.0001)                 2.490022710862746E+05,      /* I =154 */
(PID.TID 0000.0001)                 2.364352994647058E+05,      /* I =155 */
(PID.TID 0000.0001)                 2.218350349844185E+05,      /* I =156 */
(PID.TID 0000.0001)                 2.045883481718707E+05,      /* I =157 */
(PID.TID 0000.0001)                 1.835530058121492E+05,      /* I =158 */
(PID.TID 0000.0001)                 1.563594089971120E+05,      /* I =159 */
(PID.TID 0000.0001)     2 @  1.202082051331828E+05,             /* I =160:161 */
(PID.TID 0000.0001)                 1.563594089971120E+05,      /* I =162 */
(PID.TID 0000.0001)                 1.835530058121492E+05,      /* I =163 */
(PID.TID 0000.0001)                 2.045883481718707E+05,      /* I =164 */
(PID.TID 0000.0001)                 2.218350349844185E+05,      /* I =165 */
(PID.TID 0000.0001)                 2.364352994647058E+05,      /* I =166 */
(PID.TID 0000.0001)                 2.490022710862746E+05,      /* I =167 */
(PID.TID 0000.0001)                 2.598919724358304E+05,      /* I =168 */
(PID.TID 0000.0001)                 2.693210245495156E+05,      /* I =169 */
(PID.TID 0000.0001)                 2.774243179696503E+05,      /* I =170 */
(PID.TID 0000.0001)                 2.842862532064524E+05,      /* I =171 */
(PID.TID 0000.0001)                 2.899590699694043E+05,      /* I =172 */
(PID.TID 0000.0001)                 2.944742915095688E+05,      /* I =173 */
(PID.TID 0000.0001)                 2.978501920522794E+05,      /* I =174 */
(PID.TID 0000.0001)                 3.000967749619962E+05,      /* I =175 */
(PID.TID 0000.0001)     2 @  3.012190981969055E+05,             /* I =176:177 */
(PID.TID 0000.0001)                 3.000967749619962E+05,      /* I =178 */
(PID.TID 0000.0001)                 2.978501920522794E+05,      /* I =179 */
(PID.TID 0000.0001)                 2.944742915095688E+05,      /* I =180 */
(PID.TID 0000.0001)                 2.899590699694043E+05,      /* I =181 */
(PID.TID 0000.0001)                 2.842862532064524E+05,      /* I =182 */
(PID.TID 0000.0001)                 2.774243179696503E+05,      /* I =183 */
(PID.TID 0000.0001)                 2.693210245495156E+05,      /* I =184 */
(PID.TID 0000.0001)                 2.598919724358304E+05,      /* I =185 */
(PID.TID 0000.0001)                 2.490022710862746E+05,      /* I =186 */
(PID.TID 0000.0001)                 2.364352994647058E+05,      /* I =187 */
(PID.TID 0000.0001)                 2.218350349844185E+05,      /* I =188 */
(PID.TID 0000.0001)                 2.045883481718707E+05,      /* I =189 */
(PID.TID 0000.0001)                 1.835530058121492E+05,      /* I =190 */
(PID.TID 0000.0001)                 1.563594089971120E+05,      /* I =191 */
(PID.TID 0000.0001)                 1.202082051331828E+05       /* I =192 */
(PID.TID 0000.0001)     ;
(PID.TID 0000.0001) dxF =  /* dxF(1,:,1,:) ( m - cartesian, degrees - spherical ) */
(PID.TID 0000.0001)                 1.202082051331828E+05,      /* J =  1 */
(PID.TID 0000.0001)                 1.572908084538706E+05,      /* J =  2 */
(PID.TID 0000.0001)                 1.840412227747703E+05,      /* J =  3 */
(PID.TID 0000.0001)                 2.048868197919577E+05,      /* J =  4 */
(PID.TID 0000.0001)                 2.220405216043041E+05,      /* J =  5 */
(PID.TID 0000.0001)                 2.365892017348392E+05,      /* J =  6 */
(PID.TID 0000.0001)                 2.491250781852558E+05,      /* J =  7 */
(PID.TID 0000.0001)                 2.599949918261881E+05,      /* J =  8 */
(PID.TID 0000.0001)                 2.694110134598581E+05,      /* J =  9 */
(PID.TID 0000.0001)                 2.775055554645015E+05,      /* J = 10 */
(PID.TID 0000.0001)                 2.843615645344775E+05,      /* J = 11 */
(PID.TID 0000.0001)                 2.900303768613599E+05,      /* J = 12 */
(PID.TID 0000.0001)                 2.945429307892709E+05,      /* J = 13 */
(PID.TID 0000.0001)                 2.979171143158405E+05,      /* J = 14 */
(PID.TID 0000.0001)                 3.001626787528886E+05,      /* J = 15 */
(PID.TID 0000.0001)     2 @  3.012844832048790E+05,             /* J = 16: 17 */
(PID.TID 0000.0001)                 3.001626787528886E+05,      /* J = 18 */
(PID.TID 0000.0001)                 2.979171143158405E+05,      /* J = 19 */
(PID.TID 0000.0001)                 2.945429307892709E+05,      /* J = 20 */
(PID.TID 0000.0001)                 2.900303768613599E+05,      /* J = 21 */
(PID.TID 0000.0001)                 2.843615645344775E+05,      /* J = 22 */
(PID.TID 0000.0001)                 2.775055554645015E+05,      /* J = 23 */
(PID.TID 0000.0001)                 2.694110134598581E+05,      /* J = 24 */
(PID.TID 0000.0001)                 2.599949918261881E+05,      /* J = 25 */
(PID.TID 0000.0001)                 2.491250781852558E+05,      /* J = 26 */
(PID.TID 0000.0001)                 2.365892017348392E+05,      /* J = 27 */
(PID.TID 0000.0001)                 2.220405216043041E+05,      /* J = 28 */
(PID.TID 0000.0001)                 2.048868197919577E+05,      /* J = 29 */
(PID.TID 0000.0001)                 1.840412227747703E+05,      /* J = 30 */
(PID.TID 0000.0001)                 1.572908084538706E+05,      /* J = 31 */
(PID.TID 0000.0001)                 1.202082051331828E+05       /* J = 32 */
(PID.TID 0000.0001)     ;
(PID.TID 0000.0001) dyF =  /* dyF(:,1,:,1) ( m - cartesian, degrees - spherical ) */
(PID.TID 0000.0001)                 1.202082051331828E+05,      /* I =  1 */
(PID.TID 0000.0001)                 1.572908084538706E+05,      /* I =  2 */
(PID.TID 0000.0001)                 1.840412227747703E+05,      /* I =  3 */
(PID.TID 0000.0001)                 2.048868197919577E+05,      /* I =  4 */
(PID.TID 0000.0001)                 2.220405216043041E+05,      /* I =  5 */
(PID.TID 0000.0001)                 2.365892017348392E+05,      /* I =  6 */
(PID.TID 0000.0001)                 2.491250781852558E+05,      /* I =  7 */
(PID.TID 0000.0001)                 2.599949918261881E+05,      /* I =  8 */
(PID.TID 0000.0001)                 2.694110134598581E+05,      /* I =  9 */
(PID.TID 0000.0001)                 2.775055554645015E+05,      /* I = 10 */
(PID.TID 0000.0001)                 2.843615645344775E+05,      /* I = 11 */
(PID.TID 0000.0001)                 2.900303768613599E+05,      /* I = 12 */
(PID.TID 0000.0001)                 2.945429307892709E+05,      /* I = 13 */
(PID.TID 0000.0001)                 2.979171143158405E+05,      /* I = 14 */
(PID.TID 0000.0001)                 3.001626787528886E+05,      /* I = 15 */
(PID.TID 0000.0001)     2 @  3.012844832048790E+05,             /* I = 16: 17 */
(PID.TID 0000.0001)                 3.001626787528886E+05,      /* I = 18 */
(PID.TID 0000.0001)                 2.979171143158405E+05,      /* I = 19 */
(PID.TID 0000.0001)                 2.945429307892709E+05,      /* I = 20 */
(PID.TID 0000.0001)                 2.900303768613599E+05,      /* I = 21 */
(PID.TID 0000.0001)                 2.843615645344775E+05,      /* I = 22 */
(PID.TID 0000.0001)                 2.775055554645015E+05,      /* I = 23 */
(PID.TID 0000.0001)                 2.694110134598581E+05,      /* I = 24 */
(PID.TID 0000.0001)                 2.599949918261881E+05,      /* I = 25 */
(PID.TID 0000.0001)                 2.491250781852558E+05,      /* I = 26 */
(PID.TID 0000.0001)                 2.365892017348392E+05,      /* I = 27 */
(PID.TID 0000.0001)                 2.220405216043041E+05,      /* I = 28 */
(PID.TID 0000.0001)                 2.048868197919577E+05,      /* I = 29 */
(PID.TID 0000.0001)                 1.840412227747703E+05,      /* I = 30 */
(PID.TID 0000.0001)                 1.572908084538706E+05,      /* I = 31 */
(PID.TID 0000.0001)     2 @  1.202082051331828E+05,             /* I = 32: 33 */
(PID.TID 0000.0001)                 1.572908084538706E+05,      /* I = 34 */
(PID.TID 0000.0001)                 1.840412227747703E+05,      /* I = 35 */
(PID.TID 0000.0001)                 2.048868197919577E+05,      /* I = 36 */
(PID.TID 0000.0001)                 2.220405216043041E+05,      /* I = 37 */
(PID.TID 0000.0001)                 2.365892017348392E+05,      /* I = 38 */
(PID.TID 0000.0001)                 2.491250781852558E+05,      /* I = 39 */
(PID.TID 0000.0001)                 2.599949918261881E+05,      /* I = 40 */
(PID.TID 0000.0001)                 2.694110134598581E+05,      /* I = 41 */
(PID.TID 0000.0001)                 2.775055554645015E+05,      /* I = 42 */
(PID.TID 0000.0001)                 2.843615645344775E+05,      /* I = 43 */
(PID.TID 0000.0001)                 2.900303768613599E+05,      /* I = 44 */
(PID.TID 0000.0001)                 2.945429307892709E+05,      /* I = 45 */
(PID.TID 0000.0001)                 2.979171143158405E+05,      /* I = 46 */
(PID.TID 0000.0001)                 3.001626787528886E+05,      /* I = 47 */
(PID.TID 0000.0001)     2 @  3.012844832048790E+05,             /* I = 48: 49 */
(PID.TID 0000.0001)                 3.001626787528886E+05,      /* I = 50 */
(PID.TID 0000.0001)                 2.979171143158405E+05,      /* I = 51 */
(PID.TID 0000.0001)                 2.945429307892709E+05,      /* I = 52 */
(PID.TID 0000.0001)                 2.900303768613599E+05,      /* I = 53 */
(PID.TID 0000.0001)                 2.843615645344775E+05,      /* I = 54 */
(PID.TID 0000.0001)                 2.775055554645015E+05,      /* I = 55 */
(PID.TID 0000.0001)                 2.694110134598581E+05,      /* I = 56 */
(PID.TID 0000.0001)                 2.599949918261881E+05,      /* I = 57 */
(PID.TID 0000.0001)                 2.491250781852558E+05,      /* I = 58 */
(PID.TID 0000.0001)                 2.365892017348392E+05,      /* I = 59 */
(PID.TID 0000.0001)                 2.220405216043041E+05,      /* I = 60 */
(PID.TID 0000.0001)                 2.048868197919577E+05,      /* I = 61 */
(PID.TID 0000.0001)                 1.840412227747703E+05,      /* I = 62 */
(PID.TID 0000.0001)                 1.572908084538706E+05,      /* I = 63 */
(PID.TID 0000.0001)     2 @  1.202082051331828E+05,             /* I = 64: 65 */
(PID.TID 0000.0001)                 1.572908084538706E+05,      /* I = 66 */
(PID.TID 0000.0001)                 1.840412227747703E+05,      /* I = 67 */
(PID.TID 0000.0001)                 2.048868197919577E+05,      /* I = 68 */
(PID.TID 0000.0001)                 2.220405216043041E+05,      /* I = 69 */
(PID.TID 0000.0001)                 2.365892017348392E+05,      /* I = 70 */
(PID.TID 0000.0001)                 2.491250781852558E+05,      /* I = 71 */
(PID.TID 0000.0001)                 2.599949918261881E+05,      /* I = 72 */
(PID.TID 0000.0001)                 2.694110134598581E+05,      /* I = 73 */
(PID.TID 0000.0001)                 2.775055554645015E+05,      /* I = 74 */
(PID.TID 0000.0001)                 2.843615645344775E+05,      /* I = 75 */
(PID.TID 0000.0001)                 2.900303768613599E+05,      /* I = 76 */
(PID.TID 0000.0001)                 2.945429307892709E+05,      /* I = 77 */
(PID.TID 0000.0001)                 2.979171143158405E+05,      /* I = 78 */
(PID.TID 0000.0001)                 3.001626787528886E+05,      /* I = 79 */
(PID.TID 0000.0001)     2 @  3.012844832048790E+05,             /* I = 80: 81 */
(PID.TID 0000.0001)                 3.001626787528886E+05,      /* I = 82 */
(PID.TID 0000.0001)                 2.979171143158405E+05,      /* I = 83 */
(PID.TID 0000.0001)                 2.945429307892709E+05,      /* I = 84 */
(PID.TID 0000.0001)                 2.900303768613599E+05,      /* I = 85 */
(PID.TID 0000.0001)                 2.843615645344775E+05,      /* I = 86 */
(PID.TID 0000.0001)                 2.775055554645015E+05,      /* I = 87 */
(PID.TID 0000.0001)                 2.694110134598581E+05,      /* I = 88 */
(PID.TID 0000.0001)                 2.599949918261881E+05,      /* I = 89 */
(PID.TID 0000.0001)                 2.491250781852558E+05,      /* I = 90 */
(PID.TID 0000.0001)                 2.365892017348392E+05,      /* I = 91 */
(PID.TID 0000.0001)                 2.220405216043041E+05,      /* I = 92 */
(PID.TID 0000.0001)                 2.048868197919577E+05,      /* I = 93 */
(PID.TID 0000.0001)                 1.840412227747703E+05,      /* I = 94 */
(PID.TID 0000.0001)                 1.572908084538706E+05,      /* I = 95 */
(PID.TID 0000.0001)     2 @  1.202082051331828E+05,             /* I = 96: 97 */
(PID.TID 0000.0001)                 1.572908084538706E+05,      /* I = 98 */
(PID.TID 0000.0001)                 1.840412227747703E+05,      /* I = 99 */
(PID.TID 0000.0001)                 2.048868197919577E+05,      /* I =100 */
(PID.TID 0000.0001)                 2.220405216043041E+05,      /* I =101 */
(PID.TID 0000.0001)                 2.365892017348392E+05,      /* I =102 */
(PID.TID 0000.0001)                 2.491250781852558E+05,      /* I =103 */
(PID.TID 0000.0001)                 2.599949918261881E+05,      /* I =104 */
(PID.TID 0000.0001)                 2.694110134598581E+05,      /* I =105 */
(PID.TID 0000.0001)                 2.775055554645015E+05,      /* I =106 */
(PID.TID 0000.0001)                 2.843615645344775E+05,      /* I =107 */
(PID.TID 0000.0001)                 2.900303768613599E+05,      /* I =108 */
(PID.TID 0000.0001)                 2.945429307892709E+05,      /* I =109 */
(PID.TID 0000.0001)                 2.979171143158405E+05,      /* I =110 */
(PID.TID 0000.0001)                 3.001626787528886E+05,      /* I =111 */
(PID.TID 0000.0001)     2 @  3.012844832048790E+05,             /* I =112:113 */
(PID.TID 0000.0001)                 3.001626787528886E+05,      /* I =114 */
(PID.TID 0000.0001)                 2.979171143158405E+05,      /* I =115 */
(PID.TID 0000.0001)                 2.945429307892709E+05,      /* I =116 */
(PID.TID 0000.0001)                 2.900303768613599E+05,      /* I =117 */
(PID.TID 0000.0001)                 2.843615645344775E+05,      /* I =118 */
(PID.TID 0000.0001)                 2.775055554645015E+05,      /* I =119 */
(PID.TID 0000.0001)                 2.694110134598581E+05,      /* I =120 */
(PID.TID 0000.0001)                 2.599949918261881E+05,      /* I =121 */
(PID.TID 0000.0001)                 2.491250781852558E+05,      /* I =122 */
(PID.TID 0000.0001)                 2.365892017348392E+05,      /* I =123 */
(PID.TID 0000.0001)                 2.220405216043041E+05,      /* I =124 */
(PID.TID 0000.0001)                 2.048868197919577E+05,      /* I =125 */
(PID.TID 0000.0001)                 1.840412227747703E+05,      /* I =126 */
(PID.TID 0000.0001)                 1.572908084538706E+05,      /* I =127 */
(PID.TID 0000.0001)     2 @  1.202082051331828E+05,             /* I =128:129 */
(PID.TID 0000.0001)                 1.572908084538706E+05,      /* I =130 */
(PID.TID 0000.0001)                 1.840412227747703E+05,      /* I =131 */
(PID.TID 0000.0001)                 2.048868197919577E+05,      /* I =132 */
(PID.TID 0000.0001)                 2.220405216043041E+05,      /* I =133 */
(PID.TID 0000.0001)                 2.365892017348392E+05,      /* I =134 */
(PID.TID 0000.0001)                 2.491250781852558E+05,      /* I =135 */
(PID.TID 0000.0001)                 2.599949918261881E+05,      /* I =136 */
(PID.TID 0000.0001)                 2.694110134598581E+05,      /* I =137 */
(PID.TID 0000.0001)                 2.775055554645015E+05,      /* I =138 */
(PID.TID 0000.0001)                 2.843615645344775E+05,      /* I =139 */
(PID.TID 0000.0001)                 2.900303768613599E+05,      /* I =140 */
(PID.TID 0000.0001)                 2.945429307892709E+05,      /* I =141 */
(PID.TID 0000.0001)                 2.979171143158405E+05,      /* I =142 */
(PID.TID 0000.0001)                 3.001626787528886E+05,      /* I =143 */
(PID.TID 0000.0001)     2 @  3.012844832048790E+05,             /* I =144:145 */
(PID.TID 0000.0001)                 3.001626787528886E+05,      /* I =146 */
(PID.TID 0000.0001)                 2.979171143158405E+05,      /* I =147 */
(PID.TID 0000.0001)                 2.945429307892709E+05,      /* I =148 */
(PID.TID 0000.0001)                 2.900303768613599E+05,      /* I =149 */
(PID.TID 0000.0001)                 2.843615645344775E+05,      /* I =150 */
(PID.TID 0000.0001)                 2.775055554645015E+05,      /* I =151 */
(PID.TID 0000.0001)                 2.694110134598581E+05,      /* I =152 */
(PID.TID 0000.0001)                 2.599949918261881E+05,      /* I =153 */
(PID.TID 0000.0001)                 2.491250781852558E+05,      /* I =154 */
(PID.TID 0000.0001)                 2.365892017348392E+05,      /* I =155 */
(PID.TID 0000.0001)                 2.220405216043041E+05,      /* I =156 */
(PID.TID 0000.0001)                 2.048868197919577E+05,      /* I =157 */
(PID.TID 0000.0001)                 1.840412227747703E+05,      /* I =158 */
(PID.TID 0000.0001)                 1.572908084538706E+05,      /* I =159 */
(PID.TID 0000.0001)     2 @  1.202082051331828E+05,             /* I =160:161 */
(PID.TID 0000.0001)                 1.572908084538706E+05,      /* I =162 */
(PID.TID 0000.0001)                 1.840412227747703E+05,      /* I =163 */
(PID.TID 0000.0001)                 2.048868197919577E+05,      /* I =164 */
(PID.TID 0000.0001)                 2.220405216043041E+05,      /* I =165 */
(PID.TID 0000.0001)                 2.365892017348392E+05,      /* I =166 */
(PID.TID 0000.0001)                 2.491250781852558E+05,      /* I =167 */
(PID.TID 0000.0001)                 2.599949918261881E+05,      /* I =168 */
(PID.TID 0000.0001)                 2.694110134598581E+05,      /* I =169 */
(PID.TID 0000.0001)                 2.775055554645015E+05,      /* I =170 */
(PID.TID 0000.0001)                 2.843615645344775E+05,      /* I =171 */
(PID.TID 0000.0001)                 2.900303768613599E+05,      /* I =172 */
(PID.TID 0000.0001)                 2.945429307892709E+05,      /* I =173 */
(PID.TID 0000.0001)                 2.979171143158405E+05,      /* I =174 */
(PID.TID 0000.0001)                 3.001626787528886E+05,      /* I =175 */
(PID.TID 0000.0001)     2 @  3.012844832048790E+05,             /* I =176:177 */
(PID.TID 0000.0001)                 3.001626787528886E+05,      /* I =178 */
(PID.TID 0000.0001)                 2.979171143158405E+05,      /* I =179 */
(PID.TID 0000.0001)                 2.945429307892709E+05,      /* I =180 */
(PID.TID 0000.0001)                 2.900303768613599E+05,      /* I =181 */
(PID.TID 0000.0001)                 2.843615645344775E+05,      /* I =182 */
(PID.TID 0000.0001)                 2.775055554645015E+05,      /* I =183 */
(PID.TID 0000.0001)                 2.694110134598581E+05,      /* I =184 */
(PID.TID 0000.0001)                 2.599949918261881E+05,      /* I =185 */
(PID.TID 0000.0001)                 2.491250781852558E+05,      /* I =186 */
(PID.TID 0000.0001)                 2.365892017348392E+05,      /* I =187 */
(PID.TID 0000.0001)                 2.220405216043041E+05,      /* I =188 */
(PID.TID 0000.0001)                 2.048868197919577E+05,      /* I =189 */
(PID.TID 0000.0001)                 1.840412227747703E+05,      /* I =190 */
(PID.TID 0000.0001)                 1.572908084538706E+05,      /* I =191 */
(PID.TID 0000.0001)                 1.202082051331828E+05       /* I =192 */
(PID.TID 0000.0001)     ;
(PID.TID 0000.0001) dyF =  /* dyF(1,:,1,:) ( m - cartesian, degrees - spherical ) */
(PID.TID 0000.0001)                 1.202082051331828E+05,      /* J =  1 */
(PID.TID 0000.0001)                 1.563594089971120E+05,      /* J =  2 */
(PID.TID 0000.0001)                 1.835530058121492E+05,      /* J =  3 */
(PID.TID 0000.0001)                 2.045883481718707E+05,      /* J =  4 */
(PID.TID 0000.0001)                 2.218350349844185E+05,      /* J =  5 */
(PID.TID 0000.0001)                 2.364352994647058E+05,      /* J =  6 */
(PID.TID 0000.0001)                 2.490022710862746E+05,      /* J =  7 */
(PID.TID 0000.0001)                 2.598919724358304E+05,      /* J =  8 */
(PID.TID 0000.0001)                 2.693210245495156E+05,      /* J =  9 */
(PID.TID 0000.0001)                 2.774243179696503E+05,      /* J = 10 */
(PID.TID 0000.0001)                 2.842862532064524E+05,      /* J = 11 */
(PID.TID 0000.0001)                 2.899590699694043E+05,      /* J = 12 */
(PID.TID 0000.0001)                 2.944742915095688E+05,      /* J = 13 */
(PID.TID 0000.0001)                 2.978501920522794E+05,      /* J = 14 */
(PID.TID 0000.0001)                 3.000967749619962E+05,      /* J = 15 */
(PID.TID 0000.0001)     2 @  3.012190981969055E+05,             /* J = 16: 17 */
(PID.TID 0000.0001)                 3.000967749619962E+05,      /* J = 18 */
(PID.TID 0000.0001)                 2.978501920522794E+05,      /* J = 19 */
(PID.TID 0000.0001)                 2.944742915095688E+05,      /* J = 20 */
(PID.TID 0000.0001)                 2.899590699694043E+05,      /* J = 21 */
(PID.TID 0000.0001)                 2.842862532064524E+05,      /* J = 22 */
(PID.TID 0000.0001)                 2.774243179696503E+05,      /* J = 23 */
(PID.TID 0000.0001)                 2.693210245495156E+05,      /* J = 24 */
(PID.TID 0000.0001)                 2.598919724358304E+05,      /* J = 25 */
(PID.TID 0000.0001)                 2.490022710862746E+05,      /* J = 26 */
(PID.TID 0000.0001)                 2.364352994647058E+05,      /* J = 27 */
(PID.TID 0000.0001)                 2.218350349844185E+05,      /* J = 28 */
(PID.TID 0000.0001)                 2.045883481718707E+05,      /* J = 29 */
(PID.TID 0000.0001)                 1.835530058121492E+05,      /* J = 30 */
(PID.TID 0000.0001)                 1.563594089971120E+05,      /* J = 31 */
(PID.TID 0000.0001)                 1.202082051331828E+05       /* J = 32 */
(PID.TID 0000.0001)     ;
(PID.TID 0000.0001) dxG =  /* dxG(:,1,:,1) ( m - cartesian, degrees - spherical ) */
(PID.TID 0000.0001)                 1.009837800879055E+05,      /* I =  1 */
(PID.TID 0000.0001)                 1.534505834330338E+05,      /* I =  2 */
(PID.TID 0000.0001)                 1.823321598773926E+05,      /* I =  3 */
(PID.TID 0000.0001)                 2.038999045536999E+05,      /* I =  4 */
(PID.TID 0000.0001)                 2.213884732245467E+05,      /* I =  5 */
(PID.TID 0000.0001)                 2.361211699596122E+05,      /* I =  6 */
(PID.TID 0000.0001)                 2.487693460283865E+05,      /* I =  7 */
(PID.TID 0000.0001)                 2.597126963772147E+05,      /* I =  8 */
(PID.TID 0000.0001)                 2.691790288994575E+05,      /* I =  9 */
(PID.TID 0000.0001)                 2.773091043277394E+05,      /* I = 10 */
(PID.TID 0000.0001)                 2.841906470085516E+05,      /* I = 11 */
(PID.TID 0000.0001)                 2.898778860929753E+05,      /* I = 12 */
(PID.TID 0000.0001)                 2.944035815526416E+05,      /* I = 13 */
(PID.TID 0000.0001)                 2.977867909042096E+05,      /* I = 14 */
(PID.TID 0000.0001)                 3.000380090330854E+05,      /* I = 15 */
(PID.TID 0000.0001)     2 @  3.011625828699101E+05,             /* I = 16: 17 */
(PID.TID 0000.0001)                 3.000380090330854E+05,      /* I = 18 */
(PID.TID 0000.0001)                 2.977867909042096E+05,      /* I = 19 */
(PID.TID 0000.0001)                 2.944035815526416E+05,      /* I = 20 */
(PID.TID 0000.0001)                 2.898778860929753E+05,      /* I = 21 */
(PID.TID 0000.0001)                 2.841906470085516E+05,      /* I = 22 */
(PID.TID 0000.0001)                 2.773091043277394E+05,      /* I = 23 */
(PID.TID 0000.0001)                 2.691790288994575E+05,      /* I = 24 */
(PID.TID 0000.0001)                 2.597126963772147E+05,      /* I = 25 */
(PID.TID 0000.0001)                 2.487693460283865E+05,      /* I = 26 */
(PID.TID 0000.0001)                 2.361211699596122E+05,      /* I = 27 */
(PID.TID 0000.0001)                 2.213884732245467E+05,      /* I = 28 */
(PID.TID 0000.0001)                 2.038999045536999E+05,      /* I = 29 */
(PID.TID 0000.0001)                 1.823321598773926E+05,      /* I = 30 */
(PID.TID 0000.0001)                 1.534505834330338E+05,      /* I = 31 */
(PID.TID 0000.0001)     2 @  1.009837800879055E+05,             /* I = 32: 33 */
(PID.TID 0000.0001)                 1.534505834330338E+05,      /* I = 34 */
(PID.TID 0000.0001)                 1.823321598773926E+05,      /* I = 35 */
(PID.TID 0000.0001)                 2.038999045536999E+05,      /* I = 36 */
(PID.TID 0000.0001)                 2.213884732245467E+05,      /* I = 37 */
(PID.TID 0000.0001)                 2.361211699596122E+05,      /* I = 38 */
(PID.TID 0000.0001)                 2.487693460283865E+05,      /* I = 39 */
(PID.TID 0000.0001)                 2.597126963772147E+05,      /* I = 40 */
(PID.TID 0000.0001)                 2.691790288994575E+05,      /* I = 41 */
(PID.TID 0000.0001)                 2.773091043277394E+05,      /* I = 42 */
(PID.TID 0000.0001)                 2.841906470085516E+05,      /* I = 43 */
(PID.TID 0000.0001)                 2.898778860929753E+05,      /* I = 44 */
(PID.TID 0000.0001)                 2.944035815526416E+05,      /* I = 45 */
(PID.TID 0000.0001)                 2.977867909042096E+05,      /* I = 46 */
(PID.TID 0000.0001)                 3.000380090330854E+05,      /* I = 47 */
(PID.TID 0000.0001)     2 @  3.011625828699101E+05,             /* I = 48: 49 */
(PID.TID 0000.0001)                 3.000380090330854E+05,      /* I = 50 */
(PID.TID 0000.0001)                 2.977867909042096E+05,      /* I = 51 */
(PID.TID 0000.0001)                 2.944035815526416E+05,      /* I = 52 */
(PID.TID 0000.0001)                 2.898778860929753E+05,      /* I = 53 */
(PID.TID 0000.0001)                 2.841906470085516E+05,      /* I = 54 */
(PID.TID 0000.0001)                 2.773091043277394E+05,      /* I = 55 */
(PID.TID 0000.0001)                 2.691790288994575E+05,      /* I = 56 */
(PID.TID 0000.0001)                 2.597126963772147E+05,      /* I = 57 */
(PID.TID 0000.0001)                 2.487693460283865E+05,      /* I = 58 */
(PID.TID 0000.0001)                 2.361211699596122E+05,      /* I = 59 */
(PID.TID 0000.0001)                 2.213884732245467E+05,      /* I = 60 */
(PID.TID 0000.0001)                 2.038999045536999E+05,      /* I = 61 */
(PID.TID 0000.0001)                 1.823321598773926E+05,      /* I = 62 */
(PID.TID 0000.0001)                 1.534505834330338E+05,      /* I = 63 */
(PID.TID 0000.0001)     2 @  1.009837800879055E+05,             /* I = 64: 65 */
(PID.TID 0000.0001)                 1.534505834330338E+05,      /* I = 66 */
(PID.TID 0000.0001)                 1.823321598773926E+05,      /* I = 67 */
(PID.TID 0000.0001)                 2.038999045536999E+05,      /* I = 68 */
(PID.TID 0000.0001)                 2.213884732245467E+05,      /* I = 69 */
(PID.TID 0000.0001)                 2.361211699596122E+05,      /* I = 70 */
(PID.TID 0000.0001)                 2.487693460283865E+05,      /* I = 71 */
(PID.TID 0000.0001)                 2.597126963772147E+05,      /* I = 72 */
(PID.TID 0000.0001)                 2.691790288994575E+05,      /* I = 73 */
(PID.TID 0000.0001)                 2.773091043277394E+05,      /* I = 74 */
(PID.TID 0000.0001)                 2.841906470085516E+05,      /* I = 75 */
(PID.TID 0000.0001)                 2.898778860929753E+05,      /* I = 76 */
(PID.TID 0000.0001)                 2.944035815526416E+05,      /* I = 77 */
(PID.TID 0000.0001)                 2.977867909042096E+05,      /* I = 78 */
(PID.TID 0000.0001)                 3.000380090330854E+05,      /* I = 79 */
(PID.TID 0000.0001)     2 @  3.011625828699101E+05,             /* I = 80: 81 */
(PID.TID 0000.0001)                 3.000380090330854E+05,      /* I = 82 */
(PID.TID 0000.0001)                 2.977867909042096E+05,      /* I = 83 */
(PID.TID 0000.0001)                 2.944035815526416E+05,      /* I = 84 */
(PID.TID 0000.0001)                 2.898778860929753E+05,      /* I = 85 */
(PID.TID 0000.0001)                 2.841906470085516E+05,      /* I = 86 */
(PID.TID 0000.0001)                 2.773091043277394E+05,      /* I = 87 */
(PID.TID 0000.0001)                 2.691790288994575E+05,      /* I = 88 */
(PID.TID 0000.0001)                 2.597126963772147E+05,      /* I = 89 */
(PID.TID 0000.0001)                 2.487693460283865E+05,      /* I = 90 */
(PID.TID 0000.0001)                 2.361211699596122E+05,      /* I = 91 */
(PID.TID 0000.0001)                 2.213884732245467E+05,      /* I = 92 */
(PID.TID 0000.0001)                 2.038999045536999E+05,      /* I = 93 */
(PID.TID 0000.0001)                 1.823321598773926E+05,      /* I = 94 */
(PID.TID 0000.0001)                 1.534505834330338E+05,      /* I = 95 */
(PID.TID 0000.0001)     2 @  1.009837800879055E+05,             /* I = 96: 97 */
(PID.TID 0000.0001)                 1.534505834330338E+05,      /* I = 98 */
(PID.TID 0000.0001)                 1.823321598773926E+05,      /* I = 99 */
(PID.TID 0000.0001)                 2.038999045536999E+05,      /* I =100 */
(PID.TID 0000.0001)                 2.213884732245467E+05,      /* I =101 */
(PID.TID 0000.0001)                 2.361211699596122E+05,      /* I =102 */
(PID.TID 0000.0001)                 2.487693460283865E+05,      /* I =103 */
(PID.TID 0000.0001)                 2.597126963772147E+05,      /* I =104 */
(PID.TID 0000.0001)                 2.691790288994575E+05,      /* I =105 */
(PID.TID 0000.0001)                 2.773091043277394E+05,      /* I =106 */
(PID.TID 0000.0001)                 2.841906470085516E+05,      /* I =107 */
(PID.TID 0000.0001)                 2.898778860929753E+05,      /* I =108 */
(PID.TID 0000.0001)                 2.944035815526416E+05,      /* I =109 */
(PID.TID 0000.0001)                 2.977867909042096E+05,      /* I =110 */
(PID.TID 0000.0001)                 3.000380090330854E+05,      /* I =111 */
(PID.TID 0000.0001)     2 @  3.011625828699101E+05,             /* I =112:113 */
(PID.TID 0000.0001)                 3.000380090330854E+05,      /* I =114 */
(PID.TID 0000.0001)                 2.977867909042096E+05,      /* I =115 */
(PID.TID 0000.0001)                 2.944035815526416E+05,      /* I =116 */
(PID.TID 0000.0001)                 2.898778860929753E+05,      /* I =117 */
(PID.TID 0000.0001)                 2.841906470085516E+05,      /* I =118 */
(PID.TID 0000.0001)                 2.773091043277394E+05,      /* I =119 */
(PID.TID 0000.0001)                 2.691790288994575E+05,      /* I =120 */
(PID.TID 0000.0001)                 2.597126963772147E+05,      /* I =121 */
(PID.TID 0000.0001)                 2.487693460283865E+05,      /* I =122 */
(PID.TID 0000.0001)                 2.361211699596122E+05,      /* I =123 */
(PID.TID 0000.0001)                 2.213884732245467E+05,      /* I =124 */
(PID.TID 0000.0001)                 2.038999045536999E+05,      /* I =125 */
(PID.TID 0000.0001)                 1.823321598773926E+05,      /* I =126 */
(PID.TID 0000.0001)                 1.534505834330338E+05,      /* I =127 */
(PID.TID 0000.0001)     2 @  1.009837800879055E+05,             /* I =128:129 */
(PID.TID 0000.0001)                 1.534505834330338E+05,      /* I =130 */
(PID.TID 0000.0001)                 1.823321598773926E+05,      /* I =131 */
(PID.TID 0000.0001)                 2.038999045536999E+05,      /* I =132 */
(PID.TID 0000.0001)                 2.213884732245467E+05,      /* I =133 */
(PID.TID 0000.0001)                 2.361211699596122E+05,      /* I =134 */
(PID.TID 0000.0001)                 2.487693460283865E+05,      /* I =135 */
(PID.TID 0000.0001)                 2.597126963772147E+05,      /* I =136 */
(PID.TID 0000.0001)                 2.691790288994575E+05,      /* I =137 */
(PID.TID 0000.0001)                 2.773091043277394E+05,      /* I =138 */
(PID.TID 0000.0001)                 2.841906470085516E+05,      /* I =139 */
(PID.TID 0000.0001)                 2.898778860929753E+05,      /* I =140 */
(PID.TID 0000.0001)                 2.944035815526416E+05,      /* I =141 */
(PID.TID 0000.0001)                 2.977867909042096E+05,      /* I =142 */
(PID.TID 0000.0001)                 3.000380090330854E+05,      /* I =143 */
(PID.TID 0000.0001)     2 @  3.011625828699101E+05,             /* I =144:145 */
(PID.TID 0000.0001)                 3.000380090330854E+05,      /* I =146 */
(PID.TID 0000.0001)                 2.977867909042096E+05,      /* I =147 */
(PID.TID 0000.0001)                 2.944035815526416E+05,      /* I =148 */
(PID.TID 0000.0001)                 2.898778860929753E+05,      /* I =149 */
(PID.TID 0000.0001)                 2.841906470085516E+05,      /* I =150 */
(PID.TID 0000.0001)                 2.773091043277394E+05,      /* I =151 */
(PID.TID 0000.0001)                 2.691790288994575E+05,      /* I =152 */
(PID.TID 0000.0001)                 2.597126963772147E+05,      /* I =153 */
(PID.TID 0000.0001)                 2.487693460283865E+05,      /* I =154 */
(PID.TID 0000.0001)                 2.361211699596122E+05,      /* I =155 */
(PID.TID 0000.0001)                 2.213884732245467E+05,      /* I =156 */
(PID.TID 0000.0001)                 2.038999045536999E+05,      /* I =157 */
(PID.TID 0000.0001)                 1.823321598773926E+05,      /* I =158 */
(PID.TID 0000.0001)                 1.534505834330338E+05,      /* I =159 */
(PID.TID 0000.0001)     2 @  1.009837800879055E+05,             /* I =160:161 */
(PID.TID 0000.0001)                 1.534505834330338E+05,      /* I =162 */
(PID.TID 0000.0001)                 1.823321598773926E+05,      /* I =163 */
(PID.TID 0000.0001)                 2.038999045536999E+05,      /* I =164 */
(PID.TID 0000.0001)                 2.213884732245467E+05,      /* I =165 */
(PID.TID 0000.0001)                 2.361211699596122E+05,      /* I =166 */
(PID.TID 0000.0001)                 2.487693460283865E+05,      /* I =167 */
(PID.TID 0000.0001)                 2.597126963772147E+05,      /* I =168 */
(PID.TID 0000.0001)                 2.691790288994575E+05,      /* I =169 */
(PID.TID 0000.0001)                 2.773091043277394E+05,      /* I =170 */
(PID.TID 0000.0001)                 2.841906470085516E+05,      /* I =171 */
(PID.TID 0000.0001)                 2.898778860929753E+05,      /* I =172 */
(PID.TID 0000.0001)                 2.944035815526416E+05,      /* I =173 */
(PID.TID 0000.0001)                 2.977867909042096E+05,      /* I =174 */
(PID.TID 0000.0001)                 3.000380090330854E+05,      /* I =175 */
(PID.TID 0000.0001)     2 @  3.011625828699101E+05,             /* I =176:177 */
(PID.TID 0000.0001)                 3.000380090330854E+05,      /* I =178 */
(PID.TID 0000.0001)                 2.977867909042096E+05,      /* I =179 */
(PID.TID 0000.0001)                 2.944035815526416E+05,      /* I =180 */
(PID.TID 0000.0001)                 2.898778860929753E+05,      /* I =181 */
(PID.TID 0000.0001)                 2.841906470085516E+05,      /* I =182 */
(PID.TID 0000.0001)                 2.773091043277394E+05,      /* I =183 */
(PID.TID 0000.0001)                 2.691790288994575E+05,      /* I =184 */
(PID.TID 0000.0001)                 2.597126963772147E+05,      /* I =185 */
(PID.TID 0000.0001)                 2.487693460283865E+05,      /* I =186 */
(PID.TID 0000.0001)                 2.361211699596122E+05,      /* I =187 */
(PID.TID 0000.0001)                 2.213884732245467E+05,      /* I =188 */
(PID.TID 0000.0001)                 2.038999045536999E+05,      /* I =189 */
(PID.TID 0000.0001)                 1.823321598773926E+05,      /* I =190 */
(PID.TID 0000.0001)                 1.534505834330338E+05,      /* I =191 */
(PID.TID 0000.0001)                 1.009837800879055E+05       /* I =192 */
(PID.TID 0000.0001)     ;
(PID.TID 0000.0001) dxG =  /* dxG(1,:,1,:) ( m - cartesian, degrees - spherical ) */
(PID.TID 0000.0001)                 1.009837800879055E+05,      /* J =  1 */
(PID.TID 0000.0001)                 1.403701524205399E+05,      /* J =  2 */
(PID.TID 0000.0001)                 1.716197227386011E+05,      /* J =  3 */
(PID.TID 0000.0001)                 1.950254041626018E+05,      /* J =  4 */
(PID.TID 0000.0001)                 2.138410773065497E+05,      /* J =  5 */
(PID.TID 0000.0001)                 2.295958105911512E+05,      /* J =  6 */
(PID.TID 0000.0001)                 2.430829951739083E+05,      /* J =  7 */
(PID.TID 0000.0001)                 2.547526806712889E+05,      /* J =  8 */
(PID.TID 0000.0001)                 2.648750305193301E+05,      /* J =  9 */
(PID.TID 0000.0001)                 2.736173771018112E+05,      /* J = 10 */
(PID.TID 0000.0001)                 2.810845823202647E+05,      /* J = 11 */
(PID.TID 0000.0001)                 2.873420591008078E+05,      /* J = 12 */
(PID.TID 0000.0001)                 2.924298293668651E+05,      /* J = 13 */
(PID.TID 0000.0001)                 2.963715635865306E+05,      /* J = 14 */
(PID.TID 0000.0001)                 2.991805843171258E+05,      /* J = 15 */
(PID.TID 0000.0001)                 3.008638765647886E+05,      /* J = 16 */
(PID.TID 0000.0001)                 3.014246674484008E+05,      /* J = 17 */
(PID.TID 0000.0001)                 3.008638765647886E+05,      /* J = 18 */
(PID.TID 0000.0001)                 2.991805843171258E+05,      /* J = 19 */
(PID.TID 0000.0001)                 2.963715635865306E+05,      /* J = 20 */
(PID.TID 0000.0001)                 2.924298293668651E+05,      /* J = 21 */
(PID.TID 0000.0001)                 2.873420591008078E+05,      /* J = 22 */
(PID.TID 0000.0001)                 2.810845823202647E+05,      /* J = 23 */
(PID.TID 0000.0001)                 2.736173771018112E+05,      /* J = 24 */
(PID.TID 0000.0001)                 2.648750305193301E+05,      /* J = 25 */
(PID.TID 0000.0001)                 2.547526806712889E+05,      /* J = 26 */
(PID.TID 0000.0001)                 2.430829951739083E+05,      /* J = 27 */
(PID.TID 0000.0001)                 2.295958105911512E+05,      /* J = 28 */
(PID.TID 0000.0001)                 2.138410773065497E+05,      /* J = 29 */
(PID.TID 0000.0001)                 1.950254041626018E+05,      /* J = 30 */
(PID.TID 0000.0001)                 1.716197227386011E+05,      /* J = 31 */
(PID.TID 0000.0001)                 1.403701524205399E+05       /* J = 32 */
(PID.TID 0000.0001)     ;
(PID.TID 0000.0001) dyG =  /* dyG(:,1,:,1) ( m - cartesian, degrees - spherical ) */
(PID.TID 0000.0001)                 1.009837800879055E+05,      /* I =  1 */
(PID.TID 0000.0001)                 1.403701524205399E+05,      /* I =  2 */
(PID.TID 0000.0001)                 1.716197227386011E+05,      /* I =  3 */
(PID.TID 0000.0001)                 1.950254041626018E+05,      /* I =  4 */
(PID.TID 0000.0001)                 2.138410773065497E+05,      /* I =  5 */
(PID.TID 0000.0001)                 2.295958105911512E+05,      /* I =  6 */
(PID.TID 0000.0001)                 2.430829951739083E+05,      /* I =  7 */
(PID.TID 0000.0001)                 2.547526806712889E+05,      /* I =  8 */
(PID.TID 0000.0001)                 2.648750305193301E+05,      /* I =  9 */
(PID.TID 0000.0001)                 2.736173771018112E+05,      /* I = 10 */
(PID.TID 0000.0001)                 2.810845823202647E+05,      /* I = 11 */
(PID.TID 0000.0001)                 2.873420591008078E+05,      /* I = 12 */
(PID.TID 0000.0001)                 2.924298293668651E+05,      /* I = 13 */
(PID.TID 0000.0001)                 2.963715635865306E+05,      /* I = 14 */
(PID.TID 0000.0001)                 2.991805843171258E+05,      /* I = 15 */
(PID.TID 0000.0001)                 3.008638765647886E+05,      /* I = 16 */
(PID.TID 0000.0001)                 3.014246674484008E+05,      /* I = 17 */
(PID.TID 0000.0001)                 3.008638765647886E+05,      /* I = 18 */
(PID.TID 0000.0001)                 2.991805843171258E+05,      /* I = 19 */
(PID.TID 0000.0001)                 2.963715635865306E+05,      /* I = 20 */
(PID.TID 0000.0001)                 2.924298293668651E+05,      /* I = 21 */
(PID.TID 0000.0001)                 2.873420591008078E+05,      /* I = 22 */
(PID.TID 0000.0001)                 2.810845823202647E+05,      /* I = 23 */
(PID.TID 0000.0001)                 2.736173771018112E+05,      /* I = 24 */
(PID.TID 0000.0001)                 2.648750305193301E+05,      /* I = 25 */
(PID.TID 0000.0001)                 2.547526806712889E+05,      /* I = 26 */
(PID.TID 0000.0001)                 2.430829951739083E+05,      /* I = 27 */
(PID.TID 0000.0001)                 2.295958105911512E+05,      /* I = 28 */
(PID.TID 0000.0001)                 2.138410773065497E+05,      /* I = 29 */
(PID.TID 0000.0001)                 1.950254041626018E+05,      /* I = 30 */
(PID.TID 0000.0001)                 1.716197227386011E+05,      /* I = 31 */
(PID.TID 0000.0001)                 1.403701524205399E+05,      /* I = 32 */
(PID.TID 0000.0001)                 1.009837800879055E+05,      /* I = 33 */
(PID.TID 0000.0001)                 1.403701524205399E+05,      /* I = 34 */
(PID.TID 0000.0001)                 1.716197227386011E+05,      /* I = 35 */
(PID.TID 0000.0001)                 1.950254041626018E+05,      /* I = 36 */
(PID.TID 0000.0001)                 2.138410773065497E+05,      /* I = 37 */
(PID.TID 0000.0001)                 2.295958105911512E+05,      /* I = 38 */
(PID.TID 0000.0001)                 2.430829951739083E+05,      /* I = 39 */
(PID.TID 0000.0001)                 2.547526806712889E+05,      /* I = 40 */
(PID.TID 0000.0001)                 2.648750305193301E+05,      /* I = 41 */
(PID.TID 0000.0001)                 2.736173771018112E+05,      /* I = 42 */
(PID.TID 0000.0001)                 2.810845823202647E+05,      /* I = 43 */
(PID.TID 0000.0001)                 2.873420591008078E+05,      /* I = 44 */
(PID.TID 0000.0001)                 2.924298293668651E+05,      /* I = 45 */
(PID.TID 0000.0001)                 2.963715635865306E+05,      /* I = 46 */
(PID.TID 0000.0001)                 2.991805843171258E+05,      /* I = 47 */
(PID.TID 0000.0001)                 3.008638765647886E+05,      /* I = 48 */
(PID.TID 0000.0001)                 3.014246674484008E+05,      /* I = 49 */
(PID.TID 0000.0001)                 3.008638765647886E+05,      /* I = 50 */
(PID.TID 0000.0001)                 2.991805843171258E+05,      /* I = 51 */
(PID.TID 0000.0001)                 2.963715635865306E+05,      /* I = 52 */
(PID.TID 0000.0001)                 2.924298293668651E+05,      /* I = 53 */
(PID.TID 0000.0001)                 2.873420591008078E+05,      /* I = 54 */
(PID.TID 0000.0001)                 2.810845823202647E+05,      /* I = 55 */
(PID.TID 0000.0001)                 2.736173771018112E+05,      /* I = 56 */
(PID.TID 0000.0001)                 2.648750305193301E+05,      /* I = 57 */
(PID.TID 0000.0001)                 2.547526806712889E+05,      /* I = 58 */
(PID.TID 0000.0001)                 2.430829951739083E+05,      /* I = 59 */
(PID.TID 0000.0001)                 2.295958105911512E+05,      /* I = 60 */
(PID.TID 0000.0001)                 2.138410773065497E+05,      /* I = 61 */
(PID.TID 0000.0001)                 1.950254041626018E+05,      /* I = 62 */
(PID.TID 0000.0001)                 1.716197227386011E+05,      /* I = 63 */
(PID.TID 0000.0001)                 1.403701524205399E+05,      /* I = 64 */
(PID.TID 0000.0001)                 1.009837800879055E+05,      /* I = 65 */
(PID.TID 0000.0001)                 1.403701524205399E+05,      /* I = 66 */
(PID.TID 0000.0001)                 1.716197227386011E+05,      /* I = 67 */
(PID.TID 0000.0001)                 1.950254041626018E+05,      /* I = 68 */
(PID.TID 0000.0001)                 2.138410773065497E+05,      /* I = 69 */
(PID.TID 0000.0001)                 2.295958105911512E+05,      /* I = 70 */
(PID.TID 0000.0001)                 2.430829951739083E+05,      /* I = 71 */
(PID.TID 0000.0001)                 2.547526806712889E+05,      /* I = 72 */
(PID.TID 0000.0001)                 2.648750305193301E+05,      /* I = 73 */
(PID.TID 0000.0001)                 2.736173771018112E+05,      /* I = 74 */
(PID.TID 0000.0001)                 2.810845823202647E+05,      /* I = 75 */
(PID.TID 0000.0001)                 2.873420591008078E+05,      /* I = 76 */
(PID.TID 0000.0001)                 2.924298293668651E+05,      /* I = 77 */
(PID.TID 0000.0001)                 2.963715635865306E+05,      /* I = 78 */
(PID.TID 0000.0001)                 2.991805843171258E+05,      /* I = 79 */
(PID.TID 0000.0001)                 3.008638765647886E+05,      /* I = 80 */
(PID.TID 0000.0001)                 3.014246674484008E+05,      /* I = 81 */
(PID.TID 0000.0001)                 3.008638765647886E+05,      /* I = 82 */
(PID.TID 0000.0001)                 2.991805843171258E+05,      /* I = 83 */
(PID.TID 0000.0001)                 2.963715635865306E+05,      /* I = 84 */
(PID.TID 0000.0001)                 2.924298293668651E+05,      /* I = 85 */
(PID.TID 0000.0001)                 2.873420591008078E+05,      /* I = 86 */
(PID.TID 0000.0001)                 2.810845823202647E+05,      /* I = 87 */
(PID.TID 0000.0001)                 2.736173771018112E+05,      /* I = 88 */
(PID.TID 0000.0001)                 2.648750305193301E+05,      /* I = 89 */
(PID.TID 0000.0001)                 2.547526806712889E+05,      /* I = 90 */
(PID.TID 0000.0001)                 2.430829951739083E+05,      /* I = 91 */
(PID.TID 0000.0001)                 2.295958105911512E+05,      /* I = 92 */
(PID.TID 0000.0001)                 2.138410773065497E+05,      /* I = 93 */
(PID.TID 0000.0001)                 1.950254041626018E+05,      /* I = 94 */
(PID.TID 0000.0001)                 1.716197227386011E+05,      /* I = 95 */
(PID.TID 0000.0001)                 1.403701524205399E+05,      /* I = 96 */
(PID.TID 0000.0001)                 1.009837800879055E+05,      /* I = 97 */
(PID.TID 0000.0001)                 1.403701524205399E+05,      /* I = 98 */
(PID.TID 0000.0001)                 1.716197227386011E+05,      /* I = 99 */
(PID.TID 0000.0001)                 1.950254041626018E+05,      /* I =100 */
(PID.TID 0000.0001)                 2.138410773065497E+05,      /* I =101 */
(PID.TID 0000.0001)                 2.295958105911512E+05,      /* I =102 */
(PID.TID 0000.0001)                 2.430829951739083E+05,      /* I =103 */
(PID.TID 0000.0001)                 2.547526806712889E+05,      /* I =104 */
(PID.TID 0000.0001)                 2.648750305193301E+05,      /* I =105 */
(PID.TID 0000.0001)                 2.736173771018112E+05,      /* I =106 */
(PID.TID 0000.0001)                 2.810845823202647E+05,      /* I =107 */
(PID.TID 0000.0001)                 2.873420591008078E+05,      /* I =108 */
(PID.TID 0000.0001)                 2.924298293668651E+05,      /* I =109 */
(PID.TID 0000.0001)                 2.963715635865306E+05,      /* I =110 */
(PID.TID 0000.0001)                 2.991805843171258E+05,      /* I =111 */
(PID.TID 0000.0001)                 3.008638765647886E+05,      /* I =112 */
(PID.TID 0000.0001)                 3.014246674484008E+05,      /* I =113 */
(PID.TID 0000.0001)                 3.008638765647886E+05,      /* I =114 */
(PID.TID 0000.0001)                 2.991805843171258E+05,      /* I =115 */
(PID.TID 0000.0001)                 2.963715635865306E+05,      /* I =116 */
(PID.TID 0000.0001)                 2.924298293668651E+05,      /* I =117 */
(PID.TID 0000.0001)                 2.873420591008078E+05,      /* I =118 */
(PID.TID 0000.0001)                 2.810845823202647E+05,      /* I =119 */
(PID.TID 0000.0001)                 2.736173771018112E+05,      /* I =120 */
(PID.TID 0000.0001)                 2.648750305193301E+05,      /* I =121 */
(PID.TID 0000.0001)                 2.547526806712889E+05,      /* I =122 */
(PID.TID 0000.0001)                 2.430829951739083E+05,      /* I =123 */
(PID.TID 0000.0001)                 2.295958105911512E+05,      /* I =124 */
(PID.TID 0000.0001)                 2.138410773065497E+05,      /* I =125 */
(PID.TID 0000.0001)                 1.950254041626018E+05,      /* I =126 */
(PID.TID 0000.0001)                 1.716197227386011E+05,      /* I =127 */
(PID.TID 0000.0001)                 1.403701524205399E+05,      /* I =128 */
(PID.TID 0000.0001)                 1.009837800879055E+05,      /* I =129 */
(PID.TID 0000.0001)                 1.403701524205399E+05,      /* I =130 */
(PID.TID 0000.0001)                 1.716197227386011E+05,      /* I =131 */
(PID.TID 0000.0001)                 1.950254041626018E+05,      /* I =132 */
(PID.TID 0000.0001)                 2.138410773065497E+05,      /* I =133 */
(PID.TID 0000.0001)                 2.295958105911512E+05,      /* I =134 */
(PID.TID 0000.0001)                 2.430829951739083E+05,      /* I =135 */
(PID.TID 0000.0001)                 2.547526806712889E+05,      /* I =136 */
(PID.TID 0000.0001)                 2.648750305193301E+05,      /* I =137 */
(PID.TID 0000.0001)                 2.736173771018112E+05,      /* I =138 */
(PID.TID 0000.0001)                 2.810845823202647E+05,      /* I =139 */
(PID.TID 0000.0001)                 2.873420591008078E+05,      /* I =140 */
(PID.TID 0000.0001)                 2.924298293668651E+05,      /* I =141 */
(PID.TID 0000.0001)                 2.963715635865306E+05,      /* I =142 */
(PID.TID 0000.0001)                 2.991805843171258E+05,      /* I =143 */
(PID.TID 0000.0001)                 3.008638765647886E+05,      /* I =144 */
(PID.TID 0000.0001)                 3.014246674484008E+05,      /* I =145 */
(PID.TID 0000.0001)                 3.008638765647886E+05,      /* I =146 */
(PID.TID 0000.0001)                 2.991805843171258E+05,      /* I =147 */
(PID.TID 0000.0001)                 2.963715635865306E+05,      /* I =148 */
(PID.TID 0000.0001)                 2.924298293668651E+05,      /* I =149 */
(PID.TID 0000.0001)                 2.873420591008078E+05,      /* I =150 */
(PID.TID 0000.0001)                 2.810845823202647E+05,      /* I =151 */
(PID.TID 0000.0001)                 2.736173771018112E+05,      /* I =152 */
(PID.TID 0000.0001)                 2.648750305193301E+05,      /* I =153 */
(PID.TID 0000.0001)                 2.547526806712889E+05,      /* I =154 */
(PID.TID 0000.0001)                 2.430829951739083E+05,      /* I =155 */
(PID.TID 0000.0001)                 2.295958105911512E+05,      /* I =156 */
(PID.TID 0000.0001)                 2.138410773065497E+05,      /* I =157 */
(PID.TID 0000.0001)                 1.950254041626018E+05,      /* I =158 */
(PID.TID 0000.0001)                 1.716197227386011E+05,      /* I =159 */
(PID.TID 0000.0001)                 1.403701524205399E+05,      /* I =160 */
(PID.TID 0000.0001)                 1.009837800879055E+05,      /* I =161 */
(PID.TID 0000.0001)                 1.403701524205399E+05,      /* I =162 */
(PID.TID 0000.0001)                 1.716197227386011E+05,      /* I =163 */
(PID.TID 0000.0001)                 1.950254041626018E+05,      /* I =164 */
(PID.TID 0000.0001)                 2.138410773065497E+05,      /* I =165 */
(PID.TID 0000.0001)                 2.295958105911512E+05,      /* I =166 */
(PID.TID 0000.0001)                 2.430829951739083E+05,      /* I =167 */
(PID.TID 0000.0001)                 2.547526806712889E+05,      /* I =168 */
(PID.TID 0000.0001)                 2.648750305193301E+05,      /* I =169 */
(PID.TID 0000.0001)                 2.736173771018112E+05,      /* I =170 */
(PID.TID 0000.0001)                 2.810845823202647E+05,      /* I =171 */
(PID.TID 0000.0001)                 2.873420591008078E+05,      /* I =172 */
(PID.TID 0000.0001)                 2.924298293668651E+05,      /* I =173 */
(PID.TID 0000.0001)                 2.963715635865306E+05,      /* I =174 */
(PID.TID 0000.0001)                 2.991805843171258E+05,      /* I =175 */
(PID.TID 0000.0001)                 3.008638765647886E+05,      /* I =176 */
(PID.TID 0000.0001)                 3.014246674484008E+05,      /* I =177 */
(PID.TID 0000.0001)                 3.008638765647886E+05,      /* I =178 */
(PID.TID 0000.0001)                 2.991805843171258E+05,      /* I =179 */
(PID.TID 0000.0001)                 2.963715635865306E+05,      /* I =180 */
(PID.TID 0000.0001)                 2.924298293668651E+05,      /* I =181 */
(PID.TID 0000.0001)                 2.873420591008078E+05,      /* I =182 */
(PID.TID 0000.0001)                 2.810845823202647E+05,      /* I =183 */
(PID.TID 0000.0001)                 2.736173771018112E+05,      /* I =184 */
(PID.TID 0000.0001)                 2.648750305193301E+05,      /* I =185 */
(PID.TID 0000.0001)                 2.547526806712889E+05,      /* I =186 */
(PID.TID 0000.0001)                 2.430829951739083E+05,      /* I =187 */
(PID.TID 0000.0001)                 2.295958105911512E+05,      /* I =188 */
(PID.TID 0000.0001)                 2.138410773065497E+05,      /* I =189 */
(PID.TID 0000.0001)                 1.950254041626018E+05,      /* I =190 */
(PID.TID 0000.0001)                 1.716197227386011E+05,      /* I =191 */
(PID.TID 0000.0001)                 1.403701524205399E+05       /* I =192 */
(PID.TID 0000.0001)     ;
(PID.TID 0000.0001) dyG =  /* dyG(1,:,1,:) ( m - cartesian, degrees - spherical ) */
(PID.TID 0000.0001)                 1.009837800879055E+05,      /* J =  1 */
(PID.TID 0000.0001)                 1.534505834330338E+05,      /* J =  2 */
(PID.TID 0000.0001)                 1.823321598773926E+05,      /* J =  3 */
(PID.TID 0000.0001)                 2.038999045536999E+05,      /* J =  4 */
(PID.TID 0000.0001)                 2.213884732245467E+05,      /* J =  5 */
(PID.TID 0000.0001)                 2.361211699596122E+05,      /* J =  6 */
(PID.TID 0000.0001)                 2.487693460283865E+05,      /* J =  7 */
(PID.TID 0000.0001)                 2.597126963772147E+05,      /* J =  8 */
(PID.TID 0000.0001)                 2.691790288994575E+05,      /* J =  9 */
(PID.TID 0000.0001)                 2.773091043277394E+05,      /* J = 10 */
(PID.TID 0000.0001)                 2.841906470085516E+05,      /* J = 11 */
(PID.TID 0000.0001)                 2.898778860929753E+05,      /* J = 12 */
(PID.TID 0000.0001)                 2.944035815526416E+05,      /* J = 13 */
(PID.TID 0000.0001)                 2.977867909042096E+05,      /* J = 14 */
(PID.TID 0000.0001)                 3.000380090330854E+05,      /* J = 15 */
(PID.TID 0000.0001)     2 @  3.011625828699101E+05,             /* J = 16: 17 */
(PID.TID 0000.0001)                 3.000380090330854E+05,      /* J = 18 */
(PID.TID 0000.0001)                 2.977867909042096E+05,      /* J = 19 */
(PID.TID 0000.0001)                 2.944035815526416E+05,      /* J = 20 */
(PID.TID 0000.0001)                 2.898778860929753E+05,      /* J = 21 */
(PID.TID 0000.0001)                 2.841906470085516E+05,      /* J = 22 */
(PID.TID 0000.0001)                 2.773091043277394E+05,      /* J = 23 */
(PID.TID 0000.0001)                 2.691790288994575E+05,      /* J = 24 */
(PID.TID 0000.0001)                 2.597126963772147E+05,      /* J = 25 */
(PID.TID 0000.0001)                 2.487693460283865E+05,      /* J = 26 */
(PID.TID 0000.0001)                 2.361211699596122E+05,      /* J = 27 */
(PID.TID 0000.0001)                 2.213884732245467E+05,      /* J = 28 */
(PID.TID 0000.0001)                 2.038999045536999E+05,      /* J = 29 */
(PID.TID 0000.0001)                 1.823321598773926E+05,      /* J = 30 */
(PID.TID 0000.0001)                 1.534505834330338E+05,      /* J = 31 */
(PID.TID 0000.0001)                 1.009837800879055E+05       /* J = 32 */
(PID.TID 0000.0001)     ;
(PID.TID 0000.0001) dxC =  /* dxC(:,1,:,1) ( m - cartesian, degrees - spherical ) */
(PID.TID 0000.0001)                 1.135373000692312E+05,      /* I =  1 */
(PID.TID 0000.0001)                 1.391343389937106E+05,      /* I =  2 */
(PID.TID 0000.0001)                 1.709574999026267E+05,      /* I =  3 */
(PID.TID 0000.0001)                 1.946503699269892E+05,      /* I =  4 */
(PID.TID 0000.0001)                 2.135964483342134E+05,      /* I =  5 */
(PID.TID 0000.0001)                 2.294195678257306E+05,      /* I =  6 */
(PID.TID 0000.0001)                 2.429464709770498E+05,      /* I =  7 */
(PID.TID 0000.0001)                 2.546408290696998E+05,      /* I =  8 */
(PID.TID 0000.0001)                 2.647791839299727E+05,      /* I =  9 */
(PID.TID 0000.0001)                 2.735321911346108E+05,      /* I = 10 */
(PID.TID 0000.0001)                 2.810065951609633E+05,      /* I = 11 */
(PID.TID 0000.0001)                 2.872689479506990E+05,      /* I = 12 */
(PID.TID 0000.0001)                 2.923599955312932E+05,      /* I = 13 */
(PID.TID 0000.0001)                 2.963038832565530E+05,      /* I = 14 */
(PID.TID 0000.0001)                 2.991142470004740E+05,      /* I = 15 */
(PID.TID 0000.0001)                 3.007982711627968E+05,      /* I = 16 */
(PID.TID 0000.0001)                 3.013593857228136E+05,      /* I = 17 */
(PID.TID 0000.0001)                 3.007982711627968E+05,      /* I = 18 */
(PID.TID 0000.0001)                 2.991142470004740E+05,      /* I = 19 */
(PID.TID 0000.0001)                 2.963038832565530E+05,      /* I = 20 */
(PID.TID 0000.0001)                 2.923599955312932E+05,      /* I = 21 */
(PID.TID 0000.0001)                 2.872689479506990E+05,      /* I = 22 */
(PID.TID 0000.0001)                 2.810065951609633E+05,      /* I = 23 */
(PID.TID 0000.0001)                 2.735321911346108E+05,      /* I = 24 */
(PID.TID 0000.0001)                 2.647791839299727E+05,      /* I = 25 */
(PID.TID 0000.0001)                 2.546408290696998E+05,      /* I = 26 */
(PID.TID 0000.0001)                 2.429464709770498E+05,      /* I = 27 */
(PID.TID 0000.0001)                 2.294195678257306E+05,      /* I = 28 */
(PID.TID 0000.0001)                 2.135964483342134E+05,      /* I = 29 */
(PID.TID 0000.0001)                 1.946503699269892E+05,      /* I = 30 */
(PID.TID 0000.0001)                 1.709574999026267E+05,      /* I = 31 */
(PID.TID 0000.0001)                 1.391343389937106E+05,      /* I = 32 */
(PID.TID 0000.0001)                 1.135373000692312E+05,      /* I = 33 */
(PID.TID 0000.0001)                 1.391343389937106E+05,      /* I = 34 */
(PID.TID 0000.0001)                 1.709574999026267E+05,      /* I = 35 */
(PID.TID 0000.0001)                 1.946503699269892E+05,      /* I = 36 */
(PID.TID 0000.0001)                 2.135964483342134E+05,      /* I = 37 */
(PID.TID 0000.0001)                 2.294195678257306E+05,      /* I = 38 */
(PID.TID 0000.0001)                 2.429464709770498E+05,      /* I = 39 */
(PID.TID 0000.0001)                 2.546408290696998E+05,      /* I = 40 */
(PID.TID 0000.0001)                 2.647791839299727E+05,      /* I = 41 */
(PID.TID 0000.0001)                 2.735321911346108E+05,      /* I = 42 */
(PID.TID 0000.0001)                 2.810065951609633E+05,      /* I = 43 */
(PID.TID 0000.0001)                 2.872689479506990E+05,      /* I = 44 */
(PID.TID 0000.0001)                 2.923599955312932E+05,      /* I = 45 */
(PID.TID 0000.0001)                 2.963038832565530E+05,      /* I = 46 */
(PID.TID 0000.0001)                 2.991142470004740E+05,      /* I = 47 */
(PID.TID 0000.0001)                 3.007982711627968E+05,      /* I = 48 */
(PID.TID 0000.0001)                 3.013593857228136E+05,      /* I = 49 */
(PID.TID 0000.0001)                 3.007982711627968E+05,      /* I = 50 */
(PID.TID 0000.0001)                 2.991142470004740E+05,      /* I = 51 */
(PID.TID 0000.0001)                 2.963038832565530E+05,      /* I = 52 */
(PID.TID 0000.0001)                 2.923599955312932E+05,      /* I = 53 */
(PID.TID 0000.0001)                 2.872689479506990E+05,      /* I = 54 */
(PID.TID 0000.0001)                 2.810065951609633E+05,      /* I = 55 */
(PID.TID 0000.0001)                 2.735321911346108E+05,      /* I = 56 */
(PID.TID 0000.0001)                 2.647791839299727E+05,      /* I = 57 */
(PID.TID 0000.0001)                 2.546408290696998E+05,      /* I = 58 */
(PID.TID 0000.0001)                 2.429464709770498E+05,      /* I = 59 */
(PID.TID 0000.0001)                 2.294195678257306E+05,      /* I = 60 */
(PID.TID 0000.0001)                 2.135964483342134E+05,      /* I = 61 */
(PID.TID 0000.0001)                 1.946503699269892E+05,      /* I = 62 */
(PID.TID 0000.0001)                 1.709574999026267E+05,      /* I = 63 */
(PID.TID 0000.0001)                 1.391343389937106E+05,      /* I = 64 */
(PID.TID 0000.0001)                 1.135373000692312E+05,      /* I = 65 */
(PID.TID 0000.0001)                 1.391343389937106E+05,      /* I = 66 */
(PID.TID 0000.0001)                 1.709574999026267E+05,      /* I = 67 */
(PID.TID 0000.0001)                 1.946503699269892E+05,      /* I = 68 */
(PID.TID 0000.0001)                 2.135964483342134E+05,      /* I = 69 */
(PID.TID 0000.0001)                 2.294195678257306E+05,      /* I = 70 */
(PID.TID 0000.0001)                 2.429464709770498E+05,      /* I = 71 */
(PID.TID 0000.0001)                 2.546408290696998E+05,      /* I = 72 */
(PID.TID 0000.0001)                 2.647791839299727E+05,      /* I = 73 */
(PID.TID 0000.0001)                 2.735321911346108E+05,      /* I = 74 */
(PID.TID 0000.0001)                 2.810065951609633E+05,      /* I = 75 */
(PID.TID 0000.0001)                 2.872689479506990E+05,      /* I = 76 */
(PID.TID 0000.0001)                 2.923599955312932E+05,      /* I = 77 */
(PID.TID 0000.0001)                 2.963038832565530E+05,      /* I = 78 */
(PID.TID 0000.0001)                 2.991142470004740E+05,      /* I = 79 */
(PID.TID 0000.0001)                 3.007982711627968E+05,      /* I = 80 */
(PID.TID 0000.0001)                 3.013593857228136E+05,      /* I = 81 */
(PID.TID 0000.0001)                 3.007982711627968E+05,      /* I = 82 */
(PID.TID 0000.0001)                 2.991142470004740E+05,      /* I = 83 */
(PID.TID 0000.0001)                 2.963038832565530E+05,      /* I = 84 */
(PID.TID 0000.0001)                 2.923599955312932E+05,      /* I = 85 */
(PID.TID 0000.0001)                 2.872689479506990E+05,      /* I = 86 */
(PID.TID 0000.0001)                 2.810065951609633E+05,      /* I = 87 */
(PID.TID 0000.0001)                 2.735321911346108E+05,      /* I = 88 */
(PID.TID 0000.0001)                 2.647791839299727E+05,      /* I = 89 */
(PID.TID 0000.0001)                 2.546408290696998E+05,      /* I = 90 */
(PID.TID 0000.0001)                 2.429464709770498E+05,      /* I = 91 */
(PID.TID 0000.0001)                 2.294195678257306E+05,      /* I = 92 */
(PID.TID 0000.0001)                 2.135964483342134E+05,      /* I = 93 */
(PID.TID 0000.0001)                 1.946503699269892E+05,      /* I = 94 */
(PID.TID 0000.0001)                 1.709574999026267E+05,      /* I = 95 */
(PID.TID 0000.0001)                 1.391343389937106E+05,      /* I = 96 */
(PID.TID 0000.0001)                 1.135373000692312E+05,      /* I = 97 */
(PID.TID 0000.0001)                 1.391343389937106E+05,      /* I = 98 */
(PID.TID 0000.0001)                 1.709574999026267E+05,      /* I = 99 */
(PID.TID 0000.0001)                 1.946503699269892E+05,      /* I =100 */
(PID.TID 0000.0001)                 2.135964483342134E+05,      /* I =101 */
(PID.TID 0000.0001)                 2.294195678257306E+05,      /* I =102 */
(PID.TID 0000.0001)                 2.429464709770498E+05,      /* I =103 */
(PID.TID 0000.0001)                 2.546408290696998E+05,      /* I =104 */
(PID.TID 0000.0001)                 2.647791839299727E+05,      /* I =105 */
(PID.TID 0000.0001)                 2.735321911346108E+05,      /* I =106 */
(PID.TID 0000.0001)                 2.810065951609633E+05,      /* I =107 */
(PID.TID 0000.0001)                 2.872689479506990E+05,      /* I =108 */
(PID.TID 0000.0001)                 2.923599955312932E+05,      /* I =109 */
(PID.TID 0000.0001)                 2.963038832565530E+05,      /* I =110 */
(PID.TID 0000.0001)                 2.991142470004740E+05,      /* I =111 */
(PID.TID 0000.0001)                 3.007982711627968E+05,      /* I =112 */
(PID.TID 0000.0001)                 3.013593857228136E+05,      /* I =113 */
(PID.TID 0000.0001)                 3.007982711627968E+05,      /* I =114 */
(PID.TID 0000.0001)                 2.991142470004740E+05,      /* I =115 */
(PID.TID 0000.0001)                 2.963038832565530E+05,      /* I =116 */
(PID.TID 0000.0001)                 2.923599955312932E+05,      /* I =117 */
(PID.TID 0000.0001)                 2.872689479506990E+05,      /* I =118 */
(PID.TID 0000.0001)                 2.810065951609633E+05,      /* I =119 */
(PID.TID 0000.0001)                 2.735321911346108E+05,      /* I =120 */
(PID.TID 0000.0001)                 2.647791839299727E+05,      /* I =121 */
(PID.TID 0000.0001)                 2.546408290696998E+05,      /* I =122 */
(PID.TID 0000.0001)                 2.429464709770498E+05,      /* I =123 */
(PID.TID 0000.0001)                 2.294195678257306E+05,      /* I =124 */
(PID.TID 0000.0001)                 2.135964483342134E+05,      /* I =125 */
(PID.TID 0000.0001)                 1.946503699269892E+05,      /* I =126 */
(PID.TID 0000.0001)                 1.709574999026267E+05,      /* I =127 */
(PID.TID 0000.0001)                 1.391343389937106E+05,      /* I =128 */
(PID.TID 0000.0001)                 1.135373000692312E+05,      /* I =129 */
(PID.TID 0000.0001)                 1.391343389937106E+05,      /* I =130 */
(PID.TID 0000.0001)                 1.709574999026267E+05,      /* I =131 */
(PID.TID 0000.0001)                 1.946503699269892E+05,      /* I =132 */
(PID.TID 0000.0001)                 2.135964483342134E+05,      /* I =133 */
(PID.TID 0000.0001)                 2.294195678257306E+05,      /* I =134 */
(PID.TID 0000.0001)                 2.429464709770498E+05,      /* I =135 */
(PID.TID 0000.0001)                 2.546408290696998E+05,      /* I =136 */
(PID.TID 0000.0001)                 2.647791839299727E+05,      /* I =137 */
(PID.TID 0000.0001)                 2.735321911346108E+05,      /* I =138 */
(PID.TID 0000.0001)                 2.810065951609633E+05,      /* I =139 */
(PID.TID 0000.0001)                 2.872689479506990E+05,      /* I =140 */
(PID.TID 0000.0001)                 2.923599955312932E+05,      /* I =141 */
(PID.TID 0000.0001)                 2.963038832565530E+05,      /* I =142 */
(PID.TID 0000.0001)                 2.991142470004740E+05,      /* I =143 */
(PID.TID 0000.0001)                 3.007982711627968E+05,      /* I =144 */
(PID.TID 0000.0001)                 3.013593857228136E+05,      /* I =145 */
(PID.TID 0000.0001)                 3.007982711627968E+05,      /* I =146 */
(PID.TID 0000.0001)                 2.991142470004740E+05,      /* I =147 */
(PID.TID 0000.0001)                 2.963038832565530E+05,      /* I =148 */
(PID.TID 0000.0001)                 2.923599955312932E+05,      /* I =149 */
(PID.TID 0000.0001)                 2.872689479506990E+05,      /* I =150 */
(PID.TID 0000.0001)                 2.810065951609633E+05,      /* I =151 */
(PID.TID 0000.0001)                 2.735321911346108E+05,      /* I =152 */
(PID.TID 0000.0001)                 2.647791839299727E+05,      /* I =153 */
(PID.TID 0000.0001)                 2.546408290696998E+05,      /* I =154 */
(PID.TID 0000.0001)                 2.429464709770498E+05,      /* I =155 */
(PID.TID 0000.0001)                 2.294195678257306E+05,      /* I =156 */
(PID.TID 0000.0001)                 2.135964483342134E+05,      /* I =157 */
(PID.TID 0000.0001)                 1.946503699269892E+05,      /* I =158 */
(PID.TID 0000.0001)                 1.709574999026267E+05,      /* I =159 */
(PID.TID 0000.0001)                 1.391343389937106E+05,      /* I =160 */
(PID.TID 0000.0001)                 1.135373000692312E+05,      /* I =161 */
(PID.TID 0000.0001)                 1.391343389937106E+05,      /* I =162 */
(PID.TID 0000.0001)                 1.709574999026267E+05,      /* I =163 */
(PID.TID 0000.0001)                 1.946503699269892E+05,      /* I =164 */
(PID.TID 0000.0001)                 2.135964483342134E+05,      /* I =165 */
(PID.TID 0000.0001)                 2.294195678257306E+05,      /* I =166 */
(PID.TID 0000.0001)                 2.429464709770498E+05,      /* I =167 */
(PID.TID 0000.0001)                 2.546408290696998E+05,      /* I =168 */
(PID.TID 0000.0001)                 2.647791839299727E+05,      /* I =169 */
(PID.TID 0000.0001)                 2.735321911346108E+05,      /* I =170 */
(PID.TID 0000.0001)                 2.810065951609633E+05,      /* I =171 */
(PID.TID 0000.0001)                 2.872689479506990E+05,      /* I =172 */
(PID.TID 0000.0001)                 2.923599955312932E+05,      /* I =173 */
(PID.TID 0000.0001)                 2.963038832565530E+05,      /* I =174 */
(PID.TID 0000.0001)                 2.991142470004740E+05,      /* I =175 */
(PID.TID 0000.0001)                 3.007982711627968E+05,      /* I =176 */
(PID.TID 0000.0001)                 3.013593857228136E+05,      /* I =177 */
(PID.TID 0000.0001)                 3.007982711627968E+05,      /* I =178 */
(PID.TID 0000.0001)                 2.991142470004740E+05,      /* I =179 */
(PID.TID 0000.0001)                 2.963038832565530E+05,      /* I =180 */
(PID.TID 0000.0001)                 2.923599955312932E+05,      /* I =181 */
(PID.TID 0000.0001)                 2.872689479506990E+05,      /* I =182 */
(PID.TID 0000.0001)                 2.810065951609633E+05,      /* I =183 */
(PID.TID 0000.0001)                 2.735321911346108E+05,      /* I =184 */
(PID.TID 0000.0001)                 2.647791839299727E+05,      /* I =185 */
(PID.TID 0000.0001)                 2.546408290696998E+05,      /* I =186 */
(PID.TID 0000.0001)                 2.429464709770498E+05,      /* I =187 */
(PID.TID 0000.0001)                 2.294195678257306E+05,      /* I =188 */
(PID.TID 0000.0001)                 2.135964483342134E+05,      /* I =189 */
(PID.TID 0000.0001)                 1.946503699269892E+05,      /* I =190 */
(PID.TID 0000.0001)                 1.709574999026267E+05,      /* I =191 */
(PID.TID 0000.0001)                 1.391343389937106E+05       /* I =192 */
(PID.TID 0000.0001)     ;
(PID.TID 0000.0001) dxC =  /* dxC(1,:,1,:) ( m - cartesian, degrees - spherical ) */
(PID.TID 0000.0001)                 1.135373000692312E+05,      /* J =  1 */
(PID.TID 0000.0001)                 1.549545757850771E+05,      /* J =  2 */
(PID.TID 0000.0001)                 1.829777599966776E+05,      /* J =  3 */
(PID.TID 0000.0001)                 2.042717761866506E+05,      /* J =  4 */
(PID.TID 0000.0001)                 2.216367828252819E+05,      /* J =  5 */
(PID.TID 0000.0001)                 2.363029564123586E+05,      /* J =  6 */
(PID.TID 0000.0001)                 2.489113743322025E+05,      /* J =  7 */
(PID.TID 0000.0001)                 2.598293319150326E+05,      /* J =  8 */
(PID.TID 0000.0001)                 2.692787333338535E+05,      /* J =  9 */
(PID.TID 0000.0001)                 2.773972106720365E+05,      /* J = 10 */
(PID.TID 0000.0001)                 2.842706922224558E+05,      /* J = 11 */
(PID.TID 0000.0001)                 2.899523122489404E+05,      /* J = 12 */
(PID.TID 0000.0001)                 2.944741346384699E+05,      /* J = 13 */
(PID.TID 0000.0001)                 2.978547649292580E+05,      /* J = 14 */
(PID.TID 0000.0001)                 3.001044073506459E+05,      /* J = 15 */
(PID.TID 0000.0001)     2 @  3.012281885409289E+05,             /* J = 16: 17 */
(PID.TID 0000.0001)                 3.001044073506459E+05,      /* J = 18 */
(PID.TID 0000.0001)                 2.978547649292580E+05,      /* J = 19 */
(PID.TID 0000.0001)                 2.944741346384699E+05,      /* J = 20 */
(PID.TID 0000.0001)                 2.899523122489404E+05,      /* J = 21 */
(PID.TID 0000.0001)                 2.842706922224558E+05,      /* J = 22 */
(PID.TID 0000.0001)                 2.773972106720365E+05,      /* J = 23 */
(PID.TID 0000.0001)                 2.692787333338535E+05,      /* J = 24 */
(PID.TID 0000.0001)                 2.598293319150326E+05,      /* J = 25 */
(PID.TID 0000.0001)                 2.489113743322025E+05,      /* J = 26 */
(PID.TID 0000.0001)                 2.363029564123586E+05,      /* J = 27 */
(PID.TID 0000.0001)                 2.216367828252819E+05,      /* J = 28 */
(PID.TID 0000.0001)                 2.042717761866506E+05,      /* J = 29 */
(PID.TID 0000.0001)                 1.829777599966776E+05,      /* J = 30 */
(PID.TID 0000.0001)                 1.549545757850771E+05,      /* J = 31 */
(PID.TID 0000.0001)                 1.135373000692312E+05       /* J = 32 */
(PID.TID 0000.0001)     ;
(PID.TID 0000.0001) dyC =  /* dyC(:,1,:,1) ( m - cartesian, degrees - spherical ) */
(PID.TID 0000.0001)                 1.135373000692312E+05,      /* I =  1 */
(PID.TID 0000.0001)                 1.549545757850771E+05,      /* I =  2 */
(PID.TID 0000.0001)                 1.829777599966776E+05,      /* I =  3 */
(PID.TID 0000.0001)                 2.042717761866506E+05,      /* I =  4 */
(PID.TID 0000.0001)                 2.216367828252819E+05,      /* I =  5 */
(PID.TID 0000.0001)                 2.363029564123586E+05,      /* I =  6 */
(PID.TID 0000.0001)                 2.489113743322025E+05,      /* I =  7 */
(PID.TID 0000.0001)                 2.598293319150326E+05,      /* I =  8 */
(PID.TID 0000.0001)                 2.692787333338535E+05,      /* I =  9 */
(PID.TID 0000.0001)                 2.773972106720365E+05,      /* I = 10 */
(PID.TID 0000.0001)                 2.842706922224558E+05,      /* I = 11 */
(PID.TID 0000.0001)                 2.899523122489404E+05,      /* I = 12 */
(PID.TID 0000.0001)                 2.944741346384699E+05,      /* I = 13 */
(PID.TID 0000.0001)                 2.978547649292580E+05,      /* I = 14 */
(PID.TID 0000.0001)                 3.001044073506459E+05,      /* I = 15 */
(PID.TID 0000.0001)     2 @  3.012281885409289E+05,             /* I = 16: 17 */
(PID.TID 0000.0001)                 3.001044073506459E+05,      /* I = 18 */
(PID.TID 0000.0001)                 2.978547649292580E+05,      /* I = 19 */
(PID.TID 0000.0001)                 2.944741346384699E+05,      /* I = 20 */
(PID.TID 0000.0001)                 2.899523122489404E+05,      /* I = 21 */
(PID.TID 0000.0001)                 2.842706922224558E+05,      /* I = 22 */
(PID.TID 0000.0001)                 2.773972106720365E+05,      /* I = 23 */
(PID.TID 0000.0001)                 2.692787333338535E+05,      /* I = 24 */
(PID.TID 0000.0001)                 2.598293319150326E+05,      /* I = 25 */
(PID.TID 0000.0001)                 2.489113743322025E+05,      /* I = 26 */
(PID.TID 0000.0001)                 2.363029564123586E+05,      /* I = 27 */
(PID.TID 0000.0001)                 2.216367828252819E+05,      /* I = 28 */
(PID.TID 0000.0001)                 2.042717761866506E+05,      /* I = 29 */
(PID.TID 0000.0001)                 1.829777599966776E+05,      /* I = 30 */
(PID.TID 0000.0001)                 1.549545757850771E+05,      /* I = 31 */
(PID.TID 0000.0001)     2 @  1.135373000692312E+05,             /* I = 32: 33 */
(PID.TID 0000.0001)                 1.549545757850771E+05,      /* I = 34 */
(PID.TID 0000.0001)                 1.829777599966776E+05,      /* I = 35 */
(PID.TID 0000.0001)                 2.042717761866506E+05,      /* I = 36 */
(PID.TID 0000.0001)                 2.216367828252819E+05,      /* I = 37 */
(PID.TID 0000.0001)                 2.363029564123586E+05,      /* I = 38 */
(PID.TID 0000.0001)                 2.489113743322025E+05,      /* I = 39 */
(PID.TID 0000.0001)                 2.598293319150326E+05,      /* I = 40 */
(PID.TID 0000.0001)                 2.692787333338535E+05,      /* I = 41 */
(PID.TID 0000.0001)                 2.773972106720365E+05,      /* I = 42 */
(PID.TID 0000.0001)                 2.842706922224558E+05,      /* I = 43 */
(PID.TID 0000.0001)                 2.899523122489404E+05,      /* I = 44 */
(PID.TID 0000.0001)                 2.944741346384699E+05,      /* I = 45 */
(PID.TID 0000.0001)                 2.978547649292580E+05,      /* I = 46 */
(PID.TID 0000.0001)                 3.001044073506459E+05,      /* I = 47 */
(PID.TID 0000.0001)     2 @  3.012281885409289E+05,             /* I = 48: 49 */
(PID.TID 0000.0001)                 3.001044073506459E+05,      /* I = 50 */
(PID.TID 0000.0001)                 2.978547649292580E+05,      /* I = 51 */
(PID.TID 0000.0001)                 2.944741346384699E+05,      /* I = 52 */
(PID.TID 0000.0001)                 2.899523122489404E+05,      /* I = 53 */
(PID.TID 0000.0001)                 2.842706922224558E+05,      /* I = 54 */
(PID.TID 0000.0001)                 2.773972106720365E+05,      /* I = 55 */
(PID.TID 0000.0001)                 2.692787333338535E+05,      /* I = 56 */
(PID.TID 0000.0001)                 2.598293319150326E+05,      /* I = 57 */
(PID.TID 0000.0001)                 2.489113743322025E+05,      /* I = 58 */
(PID.TID 0000.0001)                 2.363029564123586E+05,      /* I = 59 */
(PID.TID 0000.0001)                 2.216367828252819E+05,      /* I = 60 */
(PID.TID 0000.0001)                 2.042717761866506E+05,      /* I = 61 */
(PID.TID 0000.0001)                 1.829777599966776E+05,      /* I = 62 */
(PID.TID 0000.0001)                 1.549545757850771E+05,      /* I = 63 */
(PID.TID 0000.0001)     2 @  1.135373000692312E+05,             /* I = 64: 65 */
(PID.TID 0000.0001)                 1.549545757850771E+05,      /* I = 66 */
(PID.TID 0000.0001)                 1.829777599966776E+05,      /* I = 67 */
(PID.TID 0000.0001)                 2.042717761866506E+05,      /* I = 68 */
(PID.TID 0000.0001)                 2.216367828252819E+05,      /* I = 69 */
(PID.TID 0000.0001)                 2.363029564123586E+05,      /* I = 70 */
(PID.TID 0000.0001)                 2.489113743322025E+05,      /* I = 71 */
(PID.TID 0000.0001)                 2.598293319150326E+05,      /* I = 72 */
(PID.TID 0000.0001)                 2.692787333338535E+05,      /* I = 73 */
(PID.TID 0000.0001)                 2.773972106720365E+05,      /* I = 74 */
(PID.TID 0000.0001)                 2.842706922224558E+05,      /* I = 75 */
(PID.TID 0000.0001)                 2.899523122489404E+05,      /* I = 76 */
(PID.TID 0000.0001)                 2.944741346384699E+05,      /* I = 77 */
(PID.TID 0000.0001)                 2.978547649292580E+05,      /* I = 78 */
(PID.TID 0000.0001)                 3.001044073506459E+05,      /* I = 79 */
(PID.TID 0000.0001)     2 @  3.012281885409289E+05,             /* I = 80: 81 */
(PID.TID 0000.0001)                 3.001044073506459E+05,      /* I = 82 */
(PID.TID 0000.0001)                 2.978547649292580E+05,      /* I = 83 */
(PID.TID 0000.0001)                 2.944741346384699E+05,      /* I = 84 */
(PID.TID 0000.0001)                 2.899523122489404E+05,      /* I = 85 */
(PID.TID 0000.0001)                 2.842706922224558E+05,      /* I = 86 */
(PID.TID 0000.0001)                 2.773972106720365E+05,      /* I = 87 */
(PID.TID 0000.0001)                 2.692787333338535E+05,      /* I = 88 */
(PID.TID 0000.0001)                 2.598293319150326E+05,      /* I = 89 */
(PID.TID 0000.0001)                 2.489113743322025E+05,      /* I = 90 */
(PID.TID 0000.0001)                 2.363029564123586E+05,      /* I = 91 */
(PID.TID 0000.0001)                 2.216367828252819E+05,      /* I = 92 */
(PID.TID 0000.0001)                 2.042717761866506E+05,      /* I = 93 */
(PID.TID 0000.0001)                 1.829777599966776E+05,      /* I = 94 */
(PID.TID 0000.0001)                 1.549545757850771E+05,      /* I = 95 */
(PID.TID 0000.0001)     2 @  1.135373000692312E+05,             /* I = 96: 97 */
(PID.TID 0000.0001)                 1.549545757850771E+05,      /* I = 98 */
(PID.TID 0000.0001)                 1.829777599966776E+05,      /* I = 99 */
(PID.TID 0000.0001)                 2.042717761866506E+05,      /* I =100 */
(PID.TID 0000.0001)                 2.216367828252819E+05,      /* I =101 */
(PID.TID 0000.0001)                 2.363029564123586E+05,      /* I =102 */
(PID.TID 0000.0001)                 2.489113743322025E+05,      /* I =103 */
(PID.TID 0000.0001)                 2.598293319150326E+05,      /* I =104 */
(PID.TID 0000.0001)                 2.692787333338535E+05,      /* I =105 */
(PID.TID 0000.0001)                 2.773972106720365E+05,      /* I =106 */
(PID.TID 0000.0001)                 2.842706922224558E+05,      /* I =107 */
(PID.TID 0000.0001)                 2.899523122489404E+05,      /* I =108 */
(PID.TID 0000.0001)                 2.944741346384699E+05,      /* I =109 */
(PID.TID 0000.0001)                 2.978547649292580E+05,      /* I =110 */
(PID.TID 0000.0001)                 3.001044073506459E+05,      /* I =111 */
(PID.TID 0000.0001)     2 @  3.012281885409289E+05,             /* I =112:113 */
(PID.TID 0000.0001)                 3.001044073506459E+05,      /* I =114 */
(PID.TID 0000.0001)                 2.978547649292580E+05,      /* I =115 */
(PID.TID 0000.0001)                 2.944741346384699E+05,      /* I =116 */
(PID.TID 0000.0001)                 2.899523122489404E+05,      /* I =117 */
(PID.TID 0000.0001)                 2.842706922224558E+05,      /* I =118 */
(PID.TID 0000.0001)                 2.773972106720365E+05,      /* I =119 */
(PID.TID 0000.0001)                 2.692787333338535E+05,      /* I =120 */
(PID.TID 0000.0001)                 2.598293319150326E+05,      /* I =121 */
(PID.TID 0000.0001)                 2.489113743322025E+05,      /* I =122 */
(PID.TID 0000.0001)                 2.363029564123586E+05,      /* I =123 */
(PID.TID 0000.0001)                 2.216367828252819E+05,      /* I =124 */
(PID.TID 0000.0001)                 2.042717761866506E+05,      /* I =125 */
(PID.TID 0000.0001)                 1.829777599966776E+05,      /* I =126 */
(PID.TID 0000.0001)                 1.549545757850771E+05,      /* I =127 */
(PID.TID 0000.0001)     2 @  1.135373000692312E+05,             /* I =128:129 */
(PID.TID 0000.0001)                 1.549545757850771E+05,      /* I =130 */
(PID.TID 0000.0001)                 1.829777599966776E+05,      /* I =131 */
(PID.TID 0000.0001)                 2.042717761866506E+05,      /* I =132 */
(PID.TID 0000.0001)                 2.216367828252819E+05,      /* I =133 */
(PID.TID 0000.0001)                 2.363029564123586E+05,      /* I =134 */
(PID.TID 0000.0001)                 2.489113743322025E+05,      /* I =135 */
(PID.TID 0000.0001)                 2.598293319150326E+05,      /* I =136 */
(PID.TID 0000.0001)                 2.692787333338535E+05,      /* I =137 */
(PID.TID 0000.0001)                 2.773972106720365E+05,      /* I =138 */
(PID.TID 0000.0001)                 2.842706922224558E+05,      /* I =139 */
(PID.TID 0000.0001)                 2.899523122489404E+05,      /* I =140 */
(PID.TID 0000.0001)                 2.944741346384699E+05,      /* I =141 */
(PID.TID 0000.0001)                 2.978547649292580E+05,      /* I =142 */
(PID.TID 0000.0001)                 3.001044073506459E+05,      /* I =143 */
(PID.TID 0000.0001)     2 @  3.012281885409289E+05,             /* I =144:145 */
(PID.TID 0000.0001)                 3.001044073506459E+05,      /* I =146 */
(PID.TID 0000.0001)                 2.978547649292580E+05,      /* I =147 */
(PID.TID 0000.0001)                 2.944741346384699E+05,      /* I =148 */
(PID.TID 0000.0001)                 2.899523122489404E+05,      /* I =149 */
(PID.TID 0000.0001)                 2.842706922224558E+05,      /* I =150 */
(PID.TID 0000.0001)                 2.773972106720365E+05,      /* I =151 */
(PID.TID 0000.0001)                 2.692787333338535E+05,      /* I =152 */
(PID.TID 0000.0001)                 2.598293319150326E+05,      /* I =153 */
(PID.TID 0000.0001)                 2.489113743322025E+05,      /* I =154 */
(PID.TID 0000.0001)                 2.363029564123586E+05,      /* I =155 */
(PID.TID 0000.0001)                 2.216367828252819E+05,      /* I =156 */
(PID.TID 0000.0001)                 2.042717761866506E+05,      /* I =157 */
(PID.TID 0000.0001)                 1.829777599966776E+05,      /* I =158 */
(PID.TID 0000.0001)                 1.549545757850771E+05,      /* I =159 */
(PID.TID 0000.0001)     2 @  1.135373000692312E+05,             /* I =160:161 */
(PID.TID 0000.0001)                 1.549545757850771E+05,      /* I =162 */
(PID.TID 0000.0001)                 1.829777599966776E+05,      /* I =163 */
(PID.TID 0000.0001)                 2.042717761866506E+05,      /* I =164 */
(PID.TID 0000.0001)                 2.216367828252819E+05,      /* I =165 */
(PID.TID 0000.0001)                 2.363029564123586E+05,      /* I =166 */
(PID.TID 0000.0001)                 2.489113743322025E+05,      /* I =167 */
(PID.TID 0000.0001)                 2.598293319150326E+05,      /* I =168 */
(PID.TID 0000.0001)                 2.692787333338535E+05,      /* I =169 */
(PID.TID 0000.0001)                 2.773972106720365E+05,      /* I =170 */
(PID.TID 0000.0001)                 2.842706922224558E+05,      /* I =171 */
(PID.TID 0000.0001)                 2.899523122489404E+05,      /* I =172 */
(PID.TID 0000.0001)                 2.944741346384699E+05,      /* I =173 */
(PID.TID 0000.0001)                 2.978547649292580E+05,      /* I =174 */
(PID.TID 0000.0001)                 3.001044073506459E+05,      /* I =175 */
(PID.TID 0000.0001)     2 @  3.012281885409289E+05,             /* I =176:177 */
(PID.TID 0000.0001)                 3.001044073506459E+05,      /* I =178 */
(PID.TID 0000.0001)                 2.978547649292580E+05,      /* I =179 */
(PID.TID 0000.0001)                 2.944741346384699E+05,      /* I =180 */
(PID.TID 0000.0001)                 2.899523122489404E+05,      /* I =181 */
(PID.TID 0000.0001)                 2.842706922224558E+05,      /* I =182 */
(PID.TID 0000.0001)                 2.773972106720365E+05,      /* I =183 */
(PID.TID 0000.0001)                 2.692787333338535E+05,      /* I =184 */
(PID.TID 0000.0001)                 2.598293319150326E+05,      /* I =185 */
(PID.TID 0000.0001)                 2.489113743322025E+05,      /* I =186 */
(PID.TID 0000.0001)                 2.363029564123586E+05,      /* I =187 */
(PID.TID 0000.0001)                 2.216367828252819E+05,      /* I =188 */
(PID.TID 0000.0001)                 2.042717761866506E+05,      /* I =189 */
(PID.TID 0000.0001)                 1.829777599966776E+05,      /* I =190 */
(PID.TID 0000.0001)                 1.549545757850771E+05,      /* I =191 */
(PID.TID 0000.0001)                 1.135373000692312E+05       /* I =192 */
(PID.TID 0000.0001)     ;
(PID.TID 0000.0001) dyC =  /* dyC(1,:,1,:) ( m - cartesian, degrees - spherical ) */
(PID.TID 0000.0001)                 1.135373000692312E+05,      /* J =  1 */
(PID.TID 0000.0001)                 1.391343389937106E+05,      /* J =  2 */
(PID.TID 0000.0001)                 1.709574999026267E+05,      /* J =  3 */
(PID.TID 0000.0001)                 1.946503699269892E+05,      /* J =  4 */
(PID.TID 0000.0001)                 2.135964483342134E+05,      /* J =  5 */
(PID.TID 0000.0001)                 2.294195678257306E+05,      /* J =  6 */
(PID.TID 0000.0001)                 2.429464709770498E+05,      /* J =  7 */
(PID.TID 0000.0001)                 2.546408290696998E+05,      /* J =  8 */
(PID.TID 0000.0001)                 2.647791839299727E+05,      /* J =  9 */
(PID.TID 0000.0001)                 2.735321911346108E+05,      /* J = 10 */
(PID.TID 0000.0001)                 2.810065951609633E+05,      /* J = 11 */
(PID.TID 0000.0001)                 2.872689479506990E+05,      /* J = 12 */
(PID.TID 0000.0001)                 2.923599955312932E+05,      /* J = 13 */
(PID.TID 0000.0001)                 2.963038832565530E+05,      /* J = 14 */
(PID.TID 0000.0001)                 2.991142470004740E+05,      /* J = 15 */
(PID.TID 0000.0001)                 3.007982711627968E+05,      /* J = 16 */
(PID.TID 0000.0001)                 3.013593857228136E+05,      /* J = 17 */
(PID.TID 0000.0001)                 3.007982711627968E+05,      /* J = 18 */
(PID.TID 0000.0001)                 2.991142470004740E+05,      /* J = 19 */
(PID.TID 0000.0001)                 2.963038832565530E+05,      /* J = 20 */
(PID.TID 0000.0001)                 2.923599955312932E+05,      /* J = 21 */
(PID.TID 0000.0001)                 2.872689479506990E+05,      /* J = 22 */
(PID.TID 0000.0001)                 2.810065951609633E+05,      /* J = 23 */
(PID.TID 0000.0001)                 2.735321911346108E+05,      /* J = 24 */
(PID.TID 0000.0001)                 2.647791839299727E+05,      /* J = 25 */
(PID.TID 0000.0001)                 2.546408290696998E+05,      /* J = 26 */
(PID.TID 0000.0001)                 2.429464709770498E+05,      /* J = 27 */
(PID.TID 0000.0001)                 2.294195678257306E+05,      /* J = 28 */
(PID.TID 0000.0001)                 2.135964483342134E+05,      /* J = 29 */
(PID.TID 0000.0001)                 1.946503699269892E+05,      /* J = 30 */
(PID.TID 0000.0001)                 1.709574999026267E+05,      /* J = 31 */
(PID.TID 0000.0001)                 1.391343389937106E+05       /* J = 32 */
(PID.TID 0000.0001)     ;
(PID.TID 0000.0001) dxV =  /* dxV(:,1,:,1) ( m - cartesian, degrees - spherical ) */
(PID.TID 0000.0001)                 8.015229982413632E+04,      /* I =  1 */
(PID.TID 0000.0001)                 1.333130744933864E+05,      /* I =  2 */
(PID.TID 0000.0001)                 1.691744868129062E+05,      /* I =  3 */
(PID.TID 0000.0001)                 1.937548202849060E+05,      /* I =  4 */
(PID.TID 0000.0001)                 2.130490056267208E+05,      /* I =  5 */
(PID.TID 0000.0001)                 2.290479919481738E+05,      /* I =  6 */
(PID.TID 0000.0001)                 2.426774358027004E+05,      /* I =  7 */
(PID.TID 0000.0001)                 2.544372984215561E+05,      /* I =  8 */
(PID.TID 0000.0001)                 2.646201463834826E+05,      /* I =  9 */
(PID.TID 0000.0001)                 2.734046499619031E+05,      /* I = 10 */
(PID.TID 0000.0001)                 2.809019351693761E+05,      /* I = 11 */
(PID.TID 0000.0001)                 2.871811105274442E+05,      /* I = 12 */
(PID.TID 0000.0001)                 2.922844849381675E+05,      /* I = 13 */
(PID.TID 0000.0001)                 2.962371870847826E+05,      /* I = 14 */
(PID.TID 0000.0001)                 2.990534755671296E+05,      /* I = 15 */
(PID.TID 0000.0001)                 3.007409169495504E+05,      /* I = 16 */
(PID.TID 0000.0001)                 3.013031486919771E+05,      /* I = 17 */
(PID.TID 0000.0001)                 3.007409169495504E+05,      /* I = 18 */
(PID.TID 0000.0001)                 2.990534755671296E+05,      /* I = 19 */
(PID.TID 0000.0001)                 2.962371870847826E+05,      /* I = 20 */
(PID.TID 0000.0001)                 2.922844849381675E+05,      /* I = 21 */
(PID.TID 0000.0001)                 2.871811105274442E+05,      /* I = 22 */
(PID.TID 0000.0001)                 2.809019351693761E+05,      /* I = 23 */
(PID.TID 0000.0001)                 2.734046499619031E+05,      /* I = 24 */
(PID.TID 0000.0001)                 2.646201463834826E+05,      /* I = 25 */
(PID.TID 0000.0001)                 2.544372984215561E+05,      /* I = 26 */
(PID.TID 0000.0001)                 2.426774358027004E+05,      /* I = 27 */
(PID.TID 0000.0001)                 2.290479919481738E+05,      /* I = 28 */
(PID.TID 0000.0001)                 2.130490056267208E+05,      /* I = 29 */
(PID.TID 0000.0001)                 1.937548202849060E+05,      /* I = 30 */
(PID.TID 0000.0001)                 1.691744868129062E+05,      /* I = 31 */
(PID.TID 0000.0001)                 1.333130744933864E+05,      /* I = 32 */
(PID.TID 0000.0001)                 8.015229982413632E+04,      /* I = 33 */
(PID.TID 0000.0001)                 1.333130744933864E+05,      /* I = 34 */
(PID.TID 0000.0001)                 1.691744868129062E+05,      /* I = 35 */
(PID.TID 0000.0001)                 1.937548202849060E+05,      /* I = 36 */
(PID.TID 0000.0001)                 2.130490056267208E+05,      /* I = 37 */
(PID.TID 0000.0001)                 2.290479919481738E+05,      /* I = 38 */
(PID.TID 0000.0001)                 2.426774358027004E+05,      /* I = 39 */
(PID.TID 0000.0001)                 2.544372984215561E+05,      /* I = 40 */
(PID.TID 0000.0001)                 2.646201463834826E+05,      /* I = 41 */
(PID.TID 0000.0001)                 2.734046499619031E+05,      /* I = 42 */
(PID.TID 0000.0001)                 2.809019351693761E+05,      /* I = 43 */
(PID.TID 0000.0001)                 2.871811105274442E+05,      /* I = 44 */
(PID.TID 0000.0001)                 2.922844849381675E+05,      /* I = 45 */
(PID.TID 0000.0001)                 2.962371870847826E+05,      /* I = 46 */
(PID.TID 0000.0001)                 2.990534755671296E+05,      /* I = 47 */
(PID.TID 0000.0001)                 3.007409169495504E+05,      /* I = 48 */
(PID.TID 0000.0001)                 3.013031486919771E+05,      /* I = 49 */
(PID.TID 0000.0001)                 3.007409169495504E+05,      /* I = 50 */
(PID.TID 0000.0001)                 2.990534755671296E+05,      /* I = 51 */
(PID.TID 0000.0001)                 2.962371870847826E+05,      /* I = 52 */
(PID.TID 0000.0001)                 2.922844849381675E+05,      /* I = 53 */
(PID.TID 0000.0001)                 2.871811105274442E+05,      /* I = 54 */
(PID.TID 0000.0001)                 2.809019351693761E+05,      /* I = 55 */
(PID.TID 0000.0001)                 2.734046499619031E+05,      /* I = 56 */
(PID.TID 0000.0001)                 2.646201463834826E+05,      /* I = 57 */
(PID.TID 0000.0001)                 2.544372984215561E+05,      /* I = 58 */
(PID.TID 0000.0001)                 2.426774358027004E+05,      /* I = 59 */
(PID.TID 0000.0001)                 2.290479919481738E+05,      /* I = 60 */
(PID.TID 0000.0001)                 2.130490056267208E+05,      /* I = 61 */
(PID.TID 0000.0001)                 1.937548202849060E+05,      /* I = 62 */
(PID.TID 0000.0001)                 1.691744868129062E+05,      /* I = 63 */
(PID.TID 0000.0001)                 1.333130744933864E+05,      /* I = 64 */
(PID.TID 0000.0001)                 8.015229982413632E+04,      /* I = 65 */
(PID.TID 0000.0001)                 1.333130744933864E+05,      /* I = 66 */
(PID.TID 0000.0001)                 1.691744868129062E+05,      /* I = 67 */
(PID.TID 0000.0001)                 1.937548202849060E+05,      /* I = 68 */
(PID.TID 0000.0001)                 2.130490056267208E+05,      /* I = 69 */
(PID.TID 0000.0001)                 2.290479919481738E+05,      /* I = 70 */
(PID.TID 0000.0001)                 2.426774358027004E+05,      /* I = 71 */
(PID.TID 0000.0001)                 2.544372984215561E+05,      /* I = 72 */
(PID.TID 0000.0001)                 2.646201463834826E+05,      /* I = 73 */
(PID.TID 0000.0001)                 2.734046499619031E+05,      /* I = 74 */
(PID.TID 0000.0001)                 2.809019351693761E+05,      /* I = 75 */
(PID.TID 0000.0001)                 2.871811105274442E+05,      /* I = 76 */
(PID.TID 0000.0001)                 2.922844849381675E+05,      /* I = 77 */
(PID.TID 0000.0001)                 2.962371870847826E+05,      /* I = 78 */
(PID.TID 0000.0001)                 2.990534755671296E+05,      /* I = 79 */
(PID.TID 0000.0001)                 3.007409169495504E+05,      /* I = 80 */
(PID.TID 0000.0001)                 3.013031486919771E+05,      /* I = 81 */
(PID.TID 0000.0001)                 3.007409169495504E+05,      /* I = 82 */
(PID.TID 0000.0001)                 2.990534755671296E+05,      /* I = 83 */
(PID.TID 0000.0001)                 2.962371870847826E+05,      /* I = 84 */
(PID.TID 0000.0001)                 2.922844849381675E+05,      /* I = 85 */
(PID.TID 0000.0001)                 2.871811105274442E+05,      /* I = 86 */
(PID.TID 0000.0001)                 2.809019351693761E+05,      /* I = 87 */
(PID.TID 0000.0001)                 2.734046499619031E+05,      /* I = 88 */
(PID.TID 0000.0001)                 2.646201463834826E+05,      /* I = 89 */
(PID.TID 0000.0001)                 2.544372984215561E+05,      /* I = 90 */
(PID.TID 0000.0001)                 2.426774358027004E+05,      /* I = 91 */
(PID.TID 0000.0001)                 2.290479919481738E+05,      /* I = 92 */
(PID.TID 0000.0001)                 2.130490056267208E+05,      /* I = 93 */
(PID.TID 0000.0001)                 1.937548202849060E+05,      /* I = 94 */
(PID.TID 0000.0001)                 1.691744868129062E+05,      /* I = 95 */
(PID.TID 0000.0001)                 1.333130744933864E+05,      /* I = 96 */
(PID.TID 0000.0001)                 8.015229982413632E+04,      /* I = 97 */
(PID.TID 0000.0001)                 1.333130744933864E+05,      /* I = 98 */
(PID.TID 0000.0001)                 1.691744868129062E+05,      /* I = 99 */
(PID.TID 0000.0001)                 1.937548202849060E+05,      /* I =100 */
(PID.TID 0000.0001)                 2.130490056267208E+05,      /* I =101 */
(PID.TID 0000.0001)                 2.290479919481738E+05,      /* I =102 */
(PID.TID 0000.0001)                 2.426774358027004E+05,      /* I =103 */
(PID.TID 0000.0001)                 2.544372984215561E+05,      /* I =104 */
(PID.TID 0000.0001)                 2.646201463834826E+05,      /* I =105 */
(PID.TID 0000.0001)                 2.734046499619031E+05,      /* I =106 */
(PID.TID 0000.0001)                 2.809019351693761E+05,      /* I =107 */
(PID.TID 0000.0001)                 2.871811105274442E+05,      /* I =108 */
(PID.TID 0000.0001)                 2.922844849381675E+05,      /* I =109 */
(PID.TID 0000.0001)                 2.962371870847826E+05,      /* I =110 */
(PID.TID 0000.0001)                 2.990534755671296E+05,      /* I =111 */
(PID.TID 0000.0001)                 3.007409169495504E+05,      /* I =112 */
(PID.TID 0000.0001)                 3.013031486919771E+05,      /* I =113 */
(PID.TID 0000.0001)                 3.007409169495504E+05,      /* I =114 */
(PID.TID 0000.0001)                 2.990534755671296E+05,      /* I =115 */
(PID.TID 0000.0001)                 2.962371870847826E+05,      /* I =116 */
(PID.TID 0000.0001)                 2.922844849381675E+05,      /* I =117 */
(PID.TID 0000.0001)                 2.871811105274442E+05,      /* I =118 */
(PID.TID 0000.0001)                 2.809019351693761E+05,      /* I =119 */
(PID.TID 0000.0001)                 2.734046499619031E+05,      /* I =120 */
(PID.TID 0000.0001)                 2.646201463834826E+05,      /* I =121 */
(PID.TID 0000.0001)                 2.544372984215561E+05,      /* I =122 */
(PID.TID 0000.0001)                 2.426774358027004E+05,      /* I =123 */
(PID.TID 0000.0001)                 2.290479919481738E+05,      /* I =124 */
(PID.TID 0000.0001)                 2.130490056267208E+05,      /* I =125 */
(PID.TID 0000.0001)                 1.937548202849060E+05,      /* I =126 */
(PID.TID 0000.0001)                 1.691744868129062E+05,      /* I =127 */
(PID.TID 0000.0001)                 1.333130744933864E+05,      /* I =128 */
(PID.TID 0000.0001)                 8.015229982413632E+04,      /* I =129 */
(PID.TID 0000.0001)                 1.333130744933864E+05,      /* I =130 */
(PID.TID 0000.0001)                 1.691744868129062E+05,      /* I =131 */
(PID.TID 0000.0001)                 1.937548202849060E+05,      /* I =132 */
(PID.TID 0000.0001)                 2.130490056267208E+05,      /* I =133 */
(PID.TID 0000.0001)                 2.290479919481738E+05,      /* I =134 */
(PID.TID 0000.0001)                 2.426774358027004E+05,      /* I =135 */
(PID.TID 0000.0001)                 2.544372984215561E+05,      /* I =136 */
(PID.TID 0000.0001)                 2.646201463834826E+05,      /* I =137 */
(PID.TID 0000.0001)                 2.734046499619031E+05,      /* I =138 */
(PID.TID 0000.0001)                 2.809019351693761E+05,      /* I =139 */
(PID.TID 0000.0001)                 2.871811105274442E+05,      /* I =140 */
(PID.TID 0000.0001)                 2.922844849381675E+05,      /* I =141 */
(PID.TID 0000.0001)                 2.962371870847826E+05,      /* I =142 */
(PID.TID 0000.0001)                 2.990534755671296E+05,      /* I =143 */
(PID.TID 0000.0001)                 3.007409169495504E+05,      /* I =144 */
(PID.TID 0000.0001)                 3.013031486919771E+05,      /* I =145 */
(PID.TID 0000.0001)                 3.007409169495504E+05,      /* I =146 */
(PID.TID 0000.0001)                 2.990534755671296E+05,      /* I =147 */
(PID.TID 0000.0001)                 2.962371870847826E+05,      /* I =148 */
(PID.TID 0000.0001)                 2.922844849381675E+05,      /* I =149 */
(PID.TID 0000.0001)                 2.871811105274442E+05,      /* I =150 */
(PID.TID 0000.0001)                 2.809019351693761E+05,      /* I =151 */
(PID.TID 0000.0001)                 2.734046499619031E+05,      /* I =152 */
(PID.TID 0000.0001)                 2.646201463834826E+05,      /* I =153 */
(PID.TID 0000.0001)                 2.544372984215561E+05,      /* I =154 */
(PID.TID 0000.0001)                 2.426774358027004E+05,      /* I =155 */
(PID.TID 0000.0001)                 2.290479919481738E+05,      /* I =156 */
(PID.TID 0000.0001)                 2.130490056267208E+05,      /* I =157 */
(PID.TID 0000.0001)                 1.937548202849060E+05,      /* I =158 */
(PID.TID 0000.0001)                 1.691744868129062E+05,      /* I =159 */
(PID.TID 0000.0001)                 1.333130744933864E+05,      /* I =160 */
(PID.TID 0000.0001)                 8.015229982413632E+04,      /* I =161 */
(PID.TID 0000.0001)                 1.333130744933864E+05,      /* I =162 */
(PID.TID 0000.0001)                 1.691744868129062E+05,      /* I =163 */
(PID.TID 0000.0001)                 1.937548202849060E+05,      /* I =164 */
(PID.TID 0000.0001)                 2.130490056267208E+05,      /* I =165 */
(PID.TID 0000.0001)                 2.290479919481738E+05,      /* I =166 */
(PID.TID 0000.0001)                 2.426774358027004E+05,      /* I =167 */
(PID.TID 0000.0001)                 2.544372984215561E+05,      /* I =168 */
(PID.TID 0000.0001)                 2.646201463834826E+05,      /* I =169 */
(PID.TID 0000.0001)                 2.734046499619031E+05,      /* I =170 */
(PID.TID 0000.0001)                 2.809019351693761E+05,      /* I =171 */
(PID.TID 0000.0001)                 2.871811105274442E+05,      /* I =172 */
(PID.TID 0000.0001)                 2.922844849381675E+05,      /* I =173 */
(PID.TID 0000.0001)                 2.962371870847826E+05,      /* I =174 */
(PID.TID 0000.0001)                 2.990534755671296E+05,      /* I =175 */
(PID.TID 0000.0001)                 3.007409169495504E+05,      /* I =176 */
(PID.TID 0000.0001)                 3.013031486919771E+05,      /* I =177 */
(PID.TID 0000.0001)                 3.007409169495504E+05,      /* I =178 */
(PID.TID 0000.0001)                 2.990534755671296E+05,      /* I =179 */
(PID.TID 0000.0001)                 2.962371870847826E+05,      /* I =180 */
(PID.TID 0000.0001)                 2.922844849381675E+05,      /* I =181 */
(PID.TID 0000.0001)                 2.871811105274442E+05,      /* I =182 */
(PID.TID 0000.0001)                 2.809019351693761E+05,      /* I =183 */
(PID.TID 0000.0001)                 2.734046499619031E+05,      /* I =184 */
(PID.TID 0000.0001)                 2.646201463834826E+05,      /* I =185 */
(PID.TID 0000.0001)                 2.544372984215561E+05,      /* I =186 */
(PID.TID 0000.0001)                 2.426774358027004E+05,      /* I =187 */
(PID.TID 0000.0001)                 2.290479919481738E+05,      /* I =188 */
(PID.TID 0000.0001)                 2.130490056267208E+05,      /* I =189 */
(PID.TID 0000.0001)                 1.937548202849060E+05,      /* I =190 */
(PID.TID 0000.0001)                 1.691744868129062E+05,      /* I =191 */
(PID.TID 0000.0001)                 1.333130744933864E+05       /* I =192 */
(PID.TID 0000.0001)     ;
(PID.TID 0000.0001) dxV =  /* dxV(1,:,1,:) ( m - cartesian, degrees - spherical ) */
(PID.TID 0000.0001)                 8.015229982413632E+04,      /* J =  1 */
(PID.TID 0000.0001)                 1.362652340208229E+05,      /* J =  2 */
(PID.TID 0000.0001)                 1.701080315742101E+05,      /* J =  3 */
(PID.TID 0000.0001)                 1.942331448101592E+05,      /* J =  4 */
(PID.TID 0000.0001)                 2.133486626971531E+05,      /* J =  5 */
(PID.TID 0000.0001)                 2.292584591272880E+05,      /* J =  6 */
(PID.TID 0000.0001)                 2.428369969078989E+05,      /* J =  7 */
(PID.TID 0000.0001)                 2.545652950875683E+05,      /* J =  8 */
(PID.TID 0000.0001)                 2.647274964828302E+05,      /* J =  9 */
(PID.TID 0000.0001)                 2.734980225206389E+05,      /* J = 10 */
(PID.TID 0000.0001)                 2.809856491525217E+05,      /* J = 11 */
(PID.TID 0000.0001)                 2.872580915202295E+05,      /* J = 12 */
(PID.TID 0000.0001)                 2.923567890694162E+05,      /* J = 13 */
(PID.TID 0000.0001)                 2.963063101754721E+05,      /* J = 14 */
(PID.TID 0000.0001)                 2.991205495886625E+05,      /* J = 15 */
(PID.TID 0000.0001)                 3.008068453676764E+05,      /* J = 16 */
(PID.TID 0000.0001)                 3.013686170436881E+05,      /* J = 17 */
(PID.TID 0000.0001)                 3.008068453676764E+05,      /* J = 18 */
(PID.TID 0000.0001)                 2.991205495886625E+05,      /* J = 19 */
(PID.TID 0000.0001)                 2.963063101754721E+05,      /* J = 20 */
(PID.TID 0000.0001)                 2.923567890694162E+05,      /* J = 21 */
(PID.TID 0000.0001)                 2.872580915202295E+05,      /* J = 22 */
(PID.TID 0000.0001)                 2.809856491525217E+05,      /* J = 23 */
(PID.TID 0000.0001)                 2.734980225206389E+05,      /* J = 24 */
(PID.TID 0000.0001)                 2.647274964828302E+05,      /* J = 25 */
(PID.TID 0000.0001)                 2.545652950875683E+05,      /* J = 26 */
(PID.TID 0000.0001)                 2.428369969078989E+05,      /* J = 27 */
(PID.TID 0000.0001)                 2.292584591272880E+05,      /* J = 28 */
(PID.TID 0000.0001)                 2.133486626971531E+05,      /* J = 29 */
(PID.TID 0000.0001)                 1.942331448101592E+05,      /* J = 30 */
(PID.TID 0000.0001)                 1.701080315742101E+05,      /* J = 31 */
(PID.TID 0000.0001)                 1.362652340208229E+05       /* J = 32 */
(PID.TID 0000.0001)     ;
(PID.TID 0000.0001) dyU =  /* dyU(:,1,:,1) ( m - cartesian, degrees - spherical ) */
(PID.TID 0000.0001)                 8.015229982413632E+04,      /* I =  1 */
(PID.TID 0000.0001)                 1.362652340208229E+05,      /* I =  2 */
(PID.TID 0000.0001)                 1.701080315742101E+05,      /* I =  3 */
(PID.TID 0000.0001)                 1.942331448101592E+05,      /* I =  4 */
(PID.TID 0000.0001)                 2.133486626971531E+05,      /* I =  5 */
(PID.TID 0000.0001)                 2.292584591272880E+05,      /* I =  6 */
(PID.TID 0000.0001)                 2.428369969078989E+05,      /* I =  7 */
(PID.TID 0000.0001)                 2.545652950875683E+05,      /* I =  8 */
(PID.TID 0000.0001)                 2.647274964828302E+05,      /* I =  9 */
(PID.TID 0000.0001)                 2.734980225206389E+05,      /* I = 10 */
(PID.TID 0000.0001)                 2.809856491525217E+05,      /* I = 11 */
(PID.TID 0000.0001)                 2.872580915202295E+05,      /* I = 12 */
(PID.TID 0000.0001)                 2.923567890694162E+05,      /* I = 13 */
(PID.TID 0000.0001)                 2.963063101754721E+05,      /* I = 14 */
(PID.TID 0000.0001)                 2.991205495886625E+05,      /* I = 15 */
(PID.TID 0000.0001)                 3.008068453676764E+05,      /* I = 16 */
(PID.TID 0000.0001)                 3.013686170436881E+05,      /* I = 17 */
(PID.TID 0000.0001)                 3.008068453676764E+05,      /* I = 18 */
(PID.TID 0000.0001)                 2.991205495886625E+05,      /* I = 19 */
(PID.TID 0000.0001)                 2.963063101754721E+05,      /* I = 20 */
(PID.TID 0000.0001)                 2.923567890694162E+05,      /* I = 21 */
(PID.TID 0000.0001)                 2.872580915202295E+05,      /* I = 22 */
(PID.TID 0000.0001)                 2.809856491525217E+05,      /* I = 23 */
(PID.TID 0000.0001)                 2.734980225206389E+05,      /* I = 24 */
(PID.TID 0000.0001)                 2.647274964828302E+05,      /* I = 25 */
(PID.TID 0000.0001)                 2.545652950875683E+05,      /* I = 26 */
(PID.TID 0000.0001)                 2.428369969078989E+05,      /* I = 27 */
(PID.TID 0000.0001)                 2.292584591272880E+05,      /* I = 28 */
(PID.TID 0000.0001)                 2.133486626971531E+05,      /* I = 29 */
(PID.TID 0000.0001)                 1.942331448101592E+05,      /* I = 30 */
(PID.TID 0000.0001)                 1.701080315742101E+05,      /* I = 31 */
(PID.TID 0000.0001)                 1.362652340208229E+05,      /* I = 32 */
(PID.TID 0000.0001)                 8.015229982413632E+04,      /* I = 33 */
(PID.TID 0000.0001)                 1.362652340208229E+05,      /* I = 34 */
(PID.TID 0000.0001)                 1.701080315742101E+05,      /* I = 35 */
(PID.TID 0000.0001)                 1.942331448101592E+05,      /* I = 36 */
(PID.TID 0000.0001)                 2.133486626971531E+05,      /* I = 37 */
(PID.TID 0000.0001)                 2.292584591272880E+05,      /* I = 38 */
(PID.TID 0000.0001)                 2.428369969078989E+05,      /* I = 39 */
(PID.TID 0000.0001)                 2.545652950875683E+05,      /* I = 40 */
(PID.TID 0000.0001)                 2.647274964828302E+05,      /* I = 41 */
(PID.TID 0000.0001)                 2.734980225206389E+05,      /* I = 42 */
(PID.TID 0000.0001)                 2.809856491525217E+05,      /* I = 43 */
(PID.TID 0000.0001)                 2.872580915202295E+05,      /* I = 44 */
(PID.TID 0000.0001)                 2.923567890694162E+05,      /* I = 45 */
(PID.TID 0000.0001)                 2.963063101754721E+05,      /* I = 46 */
(PID.TID 0000.0001)                 2.991205495886625E+05,      /* I = 47 */
(PID.TID 0000.0001)                 3.008068453676764E+05,      /* I = 48 */
(PID.TID 0000.0001)                 3.013686170436881E+05,      /* I = 49 */
(PID.TID 0000.0001)                 3.008068453676764E+05,      /* I = 50 */
(PID.TID 0000.0001)                 2.991205495886625E+05,      /* I = 51 */
(PID.TID 0000.0001)                 2.963063101754721E+05,      /* I = 52 */
(PID.TID 0000.0001)                 2.923567890694162E+05,      /* I = 53 */
(PID.TID 0000.0001)                 2.872580915202295E+05,      /* I = 54 */
(PID.TID 0000.0001)                 2.809856491525217E+05,      /* I = 55 */
(PID.TID 0000.0001)                 2.734980225206389E+05,      /* I = 56 */
(PID.TID 0000.0001)                 2.647274964828302E+05,      /* I = 57 */
(PID.TID 0000.0001)                 2.545652950875683E+05,      /* I = 58 */
(PID.TID 0000.0001)                 2.428369969078989E+05,      /* I = 59 */
(PID.TID 0000.0001)                 2.292584591272880E+05,      /* I = 60 */
(PID.TID 0000.0001)                 2.133486626971531E+05,      /* I = 61 */
(PID.TID 0000.0001)                 1.942331448101592E+05,      /* I = 62 */
(PID.TID 0000.0001)                 1.701080315742101E+05,      /* I = 63 */
(PID.TID 0000.0001)                 1.362652340208229E+05,      /* I = 64 */
(PID.TID 0000.0001)                 8.015229982413632E+04,      /* I = 65 */
(PID.TID 0000.0001)                 1.362652340208229E+05,      /* I = 66 */
(PID.TID 0000.0001)                 1.701080315742101E+05,      /* I = 67 */
(PID.TID 0000.0001)                 1.942331448101592E+05,      /* I = 68 */
(PID.TID 0000.0001)                 2.133486626971531E+05,      /* I = 69 */
(PID.TID 0000.0001)                 2.292584591272880E+05,      /* I = 70 */
(PID.TID 0000.0001)                 2.428369969078989E+05,      /* I = 71 */
(PID.TID 0000.0001)                 2.545652950875683E+05,      /* I = 72 */
(PID.TID 0000.0001)                 2.647274964828302E+05,      /* I = 73 */
(PID.TID 0000.0001)                 2.734980225206389E+05,      /* I = 74 */
(PID.TID 0000.0001)                 2.809856491525217E+05,      /* I = 75 */
(PID.TID 0000.0001)                 2.872580915202295E+05,      /* I = 76 */
(PID.TID 0000.0001)                 2.923567890694162E+05,      /* I = 77 */
(PID.TID 0000.0001)                 2.963063101754721E+05,      /* I = 78 */
(PID.TID 0000.0001)                 2.991205495886625E+05,      /* I = 79 */
(PID.TID 0000.0001)                 3.008068453676764E+05,      /* I = 80 */
(PID.TID 0000.0001)                 3.013686170436881E+05,      /* I = 81 */
(PID.TID 0000.0001)                 3.008068453676764E+05,      /* I = 82 */
(PID.TID 0000.0001)                 2.991205495886625E+05,      /* I = 83 */
(PID.TID 0000.0001)                 2.963063101754721E+05,      /* I = 84 */
(PID.TID 0000.0001)                 2.923567890694162E+05,      /* I = 85 */
(PID.TID 0000.0001)                 2.872580915202295E+05,      /* I = 86 */
(PID.TID 0000.0001)                 2.809856491525217E+05,      /* I = 87 */
(PID.TID 0000.0001)                 2.734980225206389E+05,      /* I = 88 */
(PID.TID 0000.0001)                 2.647274964828302E+05,      /* I = 89 */
(PID.TID 0000.0001)                 2.545652950875683E+05,      /* I = 90 */
(PID.TID 0000.0001)                 2.428369969078989E+05,      /* I = 91 */
(PID.TID 0000.0001)                 2.292584591272880E+05,      /* I = 92 */
(PID.TID 0000.0001)                 2.133486626971531E+05,      /* I = 93 */
(PID.TID 0000.0001)                 1.942331448101592E+05,      /* I = 94 */
(PID.TID 0000.0001)                 1.701080315742101E+05,      /* I = 95 */
(PID.TID 0000.0001)                 1.362652340208229E+05,      /* I = 96 */
(PID.TID 0000.0001)                 8.015229982413632E+04,      /* I = 97 */
(PID.TID 0000.0001)                 1.362652340208229E+05,      /* I = 98 */
(PID.TID 0000.0001)                 1.701080315742101E+05,      /* I = 99 */
(PID.TID 0000.0001)                 1.942331448101592E+05,      /* I =100 */
(PID.TID 0000.0001)                 2.133486626971531E+05,      /* I =101 */
(PID.TID 0000.0001)                 2.292584591272880E+05,      /* I =102 */
(PID.TID 0000.0001)                 2.428369969078989E+05,      /* I =103 */
(PID.TID 0000.0001)                 2.545652950875683E+05,      /* I =104 */
(PID.TID 0000.0001)                 2.647274964828302E+05,      /* I =105 */
(PID.TID 0000.0001)                 2.734980225206389E+05,      /* I =106 */
(PID.TID 0000.0001)                 2.809856491525217E+05,      /* I =107 */
(PID.TID 0000.0001)                 2.872580915202295E+05,      /* I =108 */
(PID.TID 0000.0001)                 2.923567890694162E+05,      /* I =109 */
(PID.TID 0000.0001)                 2.963063101754721E+05,      /* I =110 */
(PID.TID 0000.0001)                 2.991205495886625E+05,      /* I =111 */
(PID.TID 0000.0001)                 3.008068453676764E+05,      /* I =112 */
(PID.TID 0000.0001)                 3.013686170436881E+05,      /* I =113 */
(PID.TID 0000.0001)                 3.008068453676764E+05,      /* I =114 */
(PID.TID 0000.0001)                 2.991205495886625E+05,      /* I =115 */
(PID.TID 0000.0001)                 2.963063101754721E+05,      /* I =116 */
(PID.TID 0000.0001)                 2.923567890694162E+05,      /* I =117 */
(PID.TID 0000.0001)                 2.872580915202295E+05,      /* I =118 */
(PID.TID 0000.0001)                 2.809856491525217E+05,      /* I =119 */
(PID.TID 0000.0001)                 2.734980225206389E+05,      /* I =120 */
(PID.TID 0000.0001)                 2.647274964828302E+05,      /* I =121 */
(PID.TID 0000.0001)                 2.545652950875683E+05,      /* I =122 */
(PID.TID 0000.0001)                 2.428369969078989E+05,      /* I =123 */
(PID.TID 0000.0001)                 2.292584591272880E+05,      /* I =124 */
(PID.TID 0000.0001)                 2.133486626971531E+05,      /* I =125 */
(PID.TID 0000.0001)                 1.942331448101592E+05,      /* I =126 */
(PID.TID 0000.0001)                 1.701080315742101E+05,      /* I =127 */
(PID.TID 0000.0001)                 1.362652340208229E+05,      /* I =128 */
(PID.TID 0000.0001)                 8.015229982413632E+04,      /* I =129 */
(PID.TID 0000.0001)                 1.362652340208229E+05,      /* I =130 */
(PID.TID 0000.0001)                 1.701080315742101E+05,      /* I =131 */
(PID.TID 0000.0001)                 1.942331448101592E+05,      /* I =132 */
(PID.TID 0000.0001)                 2.133486626971531E+05,      /* I =133 */
(PID.TID 0000.0001)                 2.292584591272880E+05,      /* I =134 */
(PID.TID 0000.0001)                 2.428369969078989E+05,      /* I =135 */
(PID.TID 0000.0001)                 2.545652950875683E+05,      /* I =136 */
(PID.TID 0000.0001)                 2.647274964828302E+05,      /* I =137 */
(PID.TID 0000.0001)                 2.734980225206389E+05,      /* I =138 */
(PID.TID 0000.0001)                 2.809856491525217E+05,      /* I =139 */
(PID.TID 0000.0001)                 2.872580915202295E+05,      /* I =140 */
(PID.TID 0000.0001)                 2.923567890694162E+05,      /* I =141 */
(PID.TID 0000.0001)                 2.963063101754721E+05,      /* I =142 */
(PID.TID 0000.0001)                 2.991205495886625E+05,      /* I =143 */
(PID.TID 0000.0001)                 3.008068453676764E+05,      /* I =144 */
(PID.TID 0000.0001)                 3.013686170436881E+05,      /* I =145 */
(PID.TID 0000.0001)                 3.008068453676764E+05,      /* I =146 */
(PID.TID 0000.0001)                 2.991205495886625E+05,      /* I =147 */
(PID.TID 0000.0001)                 2.963063101754721E+05,      /* I =148 */
(PID.TID 0000.0001)                 2.923567890694162E+05,      /* I =149 */
(PID.TID 0000.0001)                 2.872580915202295E+05,      /* I =150 */
(PID.TID 0000.0001)                 2.809856491525217E+05,      /* I =151 */
(PID.TID 0000.0001)                 2.734980225206389E+05,      /* I =152 */
(PID.TID 0000.0001)                 2.647274964828302E+05,      /* I =153 */
(PID.TID 0000.0001)                 2.545652950875683E+05,      /* I =154 */
(PID.TID 0000.0001)                 2.428369969078989E+05,      /* I =155 */
(PID.TID 0000.0001)                 2.292584591272880E+05,      /* I =156 */
(PID.TID 0000.0001)                 2.133486626971531E+05,      /* I =157 */
(PID.TID 0000.0001)                 1.942331448101592E+05,      /* I =158 */
(PID.TID 0000.0001)                 1.701080315742101E+05,      /* I =159 */
(PID.TID 0000.0001)                 1.362652340208229E+05,      /* I =160 */
(PID.TID 0000.0001)                 8.015229982413632E+04,      /* I =161 */
(PID.TID 0000.0001)                 1.362652340208229E+05,      /* I =162 */
(PID.TID 0000.0001)                 1.701080315742101E+05,      /* I =163 */
(PID.TID 0000.0001)                 1.942331448101592E+05,      /* I =164 */
(PID.TID 0000.0001)                 2.133486626971531E+05,      /* I =165 */
(PID.TID 0000.0001)                 2.292584591272880E+05,      /* I =166 */
(PID.TID 0000.0001)                 2.428369969078989E+05,      /* I =167 */
(PID.TID 0000.0001)                 2.545652950875683E+05,      /* I =168 */
(PID.TID 0000.0001)                 2.647274964828302E+05,      /* I =169 */
(PID.TID 0000.0001)                 2.734980225206389E+05,      /* I =170 */
(PID.TID 0000.0001)                 2.809856491525217E+05,      /* I =171 */
(PID.TID 0000.0001)                 2.872580915202295E+05,      /* I =172 */
(PID.TID 0000.0001)                 2.923567890694162E+05,      /* I =173 */
(PID.TID 0000.0001)                 2.963063101754721E+05,      /* I =174 */
(PID.TID 0000.0001)                 2.991205495886625E+05,      /* I =175 */
(PID.TID 0000.0001)                 3.008068453676764E+05,      /* I =176 */
(PID.TID 0000.0001)                 3.013686170436881E+05,      /* I =177 */
(PID.TID 0000.0001)                 3.008068453676764E+05,      /* I =178 */
(PID.TID 0000.0001)                 2.991205495886625E+05,      /* I =179 */
(PID.TID 0000.0001)                 2.963063101754721E+05,      /* I =180 */
(PID.TID 0000.0001)                 2.923567890694162E+05,      /* I =181 */
(PID.TID 0000.0001)                 2.872580915202295E+05,      /* I =182 */
(PID.TID 0000.0001)                 2.809856491525217E+05,      /* I =183 */
(PID.TID 0000.0001)                 2.734980225206389E+05,      /* I =184 */
(PID.TID 0000.0001)                 2.647274964828302E+05,      /* I =185 */
(PID.TID 0000.0001)                 2.545652950875683E+05,      /* I =186 */
(PID.TID 0000.0001)                 2.428369969078989E+05,      /* I =187 */
(PID.TID 0000.0001)                 2.292584591272880E+05,      /* I =188 */
(PID.TID 0000.0001)                 2.133486626971531E+05,      /* I =189 */
(PID.TID 0000.0001)                 1.942331448101592E+05,      /* I =190 */
(PID.TID 0000.0001)                 1.701080315742101E+05,      /* I =191 */
(PID.TID 0000.0001)                 1.362652340208229E+05       /* I =192 */
(PID.TID 0000.0001)     ;
(PID.TID 0000.0001) dyU =  /* dyU(1,:,1,:) ( m - cartesian, degrees - spherical ) */
(PID.TID 0000.0001)                 8.015229982413632E+04,      /* J =  1 */
(PID.TID 0000.0001)                 1.333130744933864E+05,      /* J =  2 */
(PID.TID 0000.0001)                 1.691744868129062E+05,      /* J =  3 */
(PID.TID 0000.0001)                 1.937548202849060E+05,      /* J =  4 */
(PID.TID 0000.0001)                 2.130490056267208E+05,      /* J =  5 */
(PID.TID 0000.0001)                 2.290479919481738E+05,      /* J =  6 */
(PID.TID 0000.0001)                 2.426774358027004E+05,      /* J =  7 */
(PID.TID 0000.0001)                 2.544372984215561E+05,      /* J =  8 */
(PID.TID 0000.0001)                 2.646201463834826E+05,      /* J =  9 */
(PID.TID 0000.0001)                 2.734046499619031E+05,      /* J = 10 */
(PID.TID 0000.0001)                 2.809019351693761E+05,      /* J = 11 */
(PID.TID 0000.0001)                 2.871811105274442E+05,      /* J = 12 */
(PID.TID 0000.0001)                 2.922844849381675E+05,      /* J = 13 */
(PID.TID 0000.0001)                 2.962371870847826E+05,      /* J = 14 */
(PID.TID 0000.0001)                 2.990534755671296E+05,      /* J = 15 */
(PID.TID 0000.0001)                 3.007409169495504E+05,      /* J = 16 */
(PID.TID 0000.0001)                 3.013031486919771E+05,      /* J = 17 */
(PID.TID 0000.0001)                 3.007409169495504E+05,      /* J = 18 */
(PID.TID 0000.0001)                 2.990534755671296E+05,      /* J = 19 */
(PID.TID 0000.0001)                 2.962371870847826E+05,      /* J = 20 */
(PID.TID 0000.0001)                 2.922844849381675E+05,      /* J = 21 */
(PID.TID 0000.0001)                 2.871811105274442E+05,      /* J = 22 */
(PID.TID 0000.0001)                 2.809019351693761E+05,      /* J = 23 */
(PID.TID 0000.0001)                 2.734046499619031E+05,      /* J = 24 */
(PID.TID 0000.0001)                 2.646201463834826E+05,      /* J = 25 */
(PID.TID 0000.0001)                 2.544372984215561E+05,      /* J = 26 */
(PID.TID 0000.0001)                 2.426774358027004E+05,      /* J = 27 */
(PID.TID 0000.0001)                 2.290479919481738E+05,      /* J = 28 */
(PID.TID 0000.0001)                 2.130490056267208E+05,      /* J = 29 */
(PID.TID 0000.0001)                 1.937548202849060E+05,      /* J = 30 */
(PID.TID 0000.0001)                 1.691744868129062E+05,      /* J = 31 */
(PID.TID 0000.0001)                 1.333130744933864E+05       /* J = 32 */
(PID.TID 0000.0001)     ;
(PID.TID 0000.0001) rA =  /* rA(:,1,:,1) ( m - cartesian, degrees - spherical ) */
(PID.TID 0000.0001)                 1.549786705672200E+10,      /* I =  1 */
(PID.TID 0000.0001)                 2.487202533723945E+10,      /* I =  2 */
(PID.TID 0000.0001)                 3.392265412140352E+10,      /* I =  3 */
(PID.TID 0000.0001)                 4.200427377313133E+10,      /* I =  4 */
(PID.TID 0000.0001)                 4.931323764668228E+10,      /* I =  5 */
(PID.TID 0000.0001)                 5.597545074899420E+10,      /* I =  6 */
(PID.TID 0000.0001)                 6.205603937791459E+10,      /* I =  7 */
(PID.TID 0000.0001)                 6.758299971934573E+10,      /* I =  8 */
(PID.TID 0000.0001)                 7.256155653843707E+10,      /* I =  9 */
(PID.TID 0000.0001)                 7.698291833687604E+10,      /* I = 10 */
(PID.TID 0000.0001)                 8.083005486272009E+10,      /* I = 11 */
(PID.TID 0000.0001)                 8.408183191745641E+10,      /* I = 12 */
(PID.TID 0000.0001)                 8.671615787312848E+10,      /* I = 13 */
(PID.TID 0000.0001)                 8.871245486529788E+10,      /* I = 14 */
(PID.TID 0000.0001)                 9.005359372079962E+10,      /* I = 15 */
(PID.TID 0000.0001)     2 @  9.072735712796770E+10,             /* I = 16: 17 */
(PID.TID 0000.0001)                 9.005359372079962E+10,      /* I = 18 */
(PID.TID 0000.0001)                 8.871245486529788E+10,      /* I = 19 */
(PID.TID 0000.0001)                 8.671615787312848E+10,      /* I = 20 */
(PID.TID 0000.0001)                 8.408183191745641E+10,      /* I = 21 */
(PID.TID 0000.0001)                 8.083005486272009E+10,      /* I = 22 */
(PID.TID 0000.0001)                 7.698291833687604E+10,      /* I = 23 */
(PID.TID 0000.0001)                 7.256155653843707E+10,      /* I = 24 */
(PID.TID 0000.0001)                 6.758299971934573E+10,      /* I = 25 */
(PID.TID 0000.0001)                 6.205603937791459E+10,      /* I = 26 */
(PID.TID 0000.0001)                 5.597545074899420E+10,      /* I = 27 */
(PID.TID 0000.0001)                 4.931323764668228E+10,      /* I = 28 */
(PID.TID 0000.0001)                 4.200427377313133E+10,      /* I = 29 */
(PID.TID 0000.0001)                 3.392265412140352E+10,      /* I = 30 */
(PID.TID 0000.0001)                 2.487202533723945E+10,      /* I = 31 */
(PID.TID 0000.0001)     2 @  1.549786705672200E+10,             /* I = 32: 33 */
(PID.TID 0000.0001)                 2.487202533723945E+10,      /* I = 34 */
(PID.TID 0000.0001)                 3.392265412140352E+10,      /* I = 35 */
(PID.TID 0000.0001)                 4.200427377313133E+10,      /* I = 36 */
(PID.TID 0000.0001)                 4.931323764668228E+10,      /* I = 37 */
(PID.TID 0000.0001)                 5.597545074899420E+10,      /* I = 38 */
(PID.TID 0000.0001)                 6.205603937791459E+10,      /* I = 39 */
(PID.TID 0000.0001)                 6.758299971934573E+10,      /* I = 40 */
(PID.TID 0000.0001)                 7.256155653843707E+10,      /* I = 41 */
(PID.TID 0000.0001)                 7.698291833687604E+10,      /* I = 42 */
(PID.TID 0000.0001)                 8.083005486272009E+10,      /* I = 43 */
(PID.TID 0000.0001)                 8.408183191745641E+10,      /* I = 44 */
(PID.TID 0000.0001)                 8.671615787312848E+10,      /* I = 45 */
(PID.TID 0000.0001)                 8.871245486529788E+10,      /* I = 46 */
(PID.TID 0000.0001)                 9.005359372079962E+10,      /* I = 47 */
(PID.TID 0000.0001)     2 @  9.072735712796770E+10,             /* I = 48: 49 */
(PID.TID 0000.0001)                 9.005359372079962E+10,      /* I = 50 */
(PID.TID 0000.0001)                 8.871245486529788E+10,      /* I = 51 */
(PID.TID 0000.0001)                 8.671615787312848E+10,      /* I = 52 */
(PID.TID 0000.0001)                 8.408183191745641E+10,      /* I = 53 */
(PID.TID 0000.0001)                 8.083005486272009E+10,      /* I = 54 */
(PID.TID 0000.0001)                 7.698291833687604E+10,      /* I = 55 */
(PID.TID 0000.0001)                 7.256155653843707E+10,      /* I = 56 */
(PID.TID 0000.0001)                 6.758299971934573E+10,      /* I = 57 */
(PID.TID 0000.0001)                 6.205603937791459E+10,      /* I = 58 */
(PID.TID 0000.0001)                 5.597545074899420E+10,      /* I = 59 */
(PID.TID 0000.0001)                 4.931323764668228E+10,      /* I = 60 */
(PID.TID 0000.0001)                 4.200427377313133E+10,      /* I = 61 */
(PID.TID 0000.0001)                 3.392265412140352E+10,      /* I = 62 */
(PID.TID 0000.0001)                 2.487202533723945E+10,      /* I = 63 */
(PID.TID 0000.0001)     2 @  1.549786705672200E+10,             /* I = 64: 65 */
(PID.TID 0000.0001)                 2.487202533723945E+10,      /* I = 66 */
(PID.TID 0000.0001)                 3.392265412140352E+10,      /* I = 67 */
(PID.TID 0000.0001)                 4.200427377313133E+10,      /* I = 68 */
(PID.TID 0000.0001)                 4.931323764668228E+10,      /* I = 69 */
(PID.TID 0000.0001)                 5.597545074899420E+10,      /* I = 70 */
(PID.TID 0000.0001)                 6.205603937791459E+10,      /* I = 71 */
(PID.TID 0000.0001)                 6.758299971934573E+10,      /* I = 72 */
(PID.TID 0000.0001)                 7.256155653843707E+10,      /* I = 73 */
(PID.TID 0000.0001)                 7.698291833687604E+10,      /* I = 74 */
(PID.TID 0000.0001)                 8.083005486272009E+10,      /* I = 75 */
(PID.TID 0000.0001)                 8.408183191745641E+10,      /* I = 76 */
(PID.TID 0000.0001)                 8.671615787312848E+10,      /* I = 77 */
(PID.TID 0000.0001)                 8.871245486529788E+10,      /* I = 78 */
(PID.TID 0000.0001)                 9.005359372079962E+10,      /* I = 79 */
(PID.TID 0000.0001)     2 @  9.072735712796770E+10,             /* I = 80: 81 */
(PID.TID 0000.0001)                 9.005359372079962E+10,      /* I = 82 */
(PID.TID 0000.0001)                 8.871245486529788E+10,      /* I = 83 */
(PID.TID 0000.0001)                 8.671615787312848E+10,      /* I = 84 */
(PID.TID 0000.0001)                 8.408183191745641E+10,      /* I = 85 */
(PID.TID 0000.0001)                 8.083005486272009E+10,      /* I = 86 */
(PID.TID 0000.0001)                 7.698291833687604E+10,      /* I = 87 */
(PID.TID 0000.0001)                 7.256155653843707E+10,      /* I = 88 */
(PID.TID 0000.0001)                 6.758299971934573E+10,      /* I = 89 */
(PID.TID 0000.0001)                 6.205603937791459E+10,      /* I = 90 */
(PID.TID 0000.0001)                 5.597545074899420E+10,      /* I = 91 */
(PID.TID 0000.0001)                 4.931323764668228E+10,      /* I = 92 */
(PID.TID 0000.0001)                 4.200427377313133E+10,      /* I = 93 */
(PID.TID 0000.0001)                 3.392265412140352E+10,      /* I = 94 */
(PID.TID 0000.0001)                 2.487202533723945E+10,      /* I = 95 */
(PID.TID 0000.0001)     2 @  1.549786705672200E+10,             /* I = 96: 97 */
(PID.TID 0000.0001)                 2.487202533723945E+10,      /* I = 98 */
(PID.TID 0000.0001)                 3.392265412140352E+10,      /* I = 99 */
(PID.TID 0000.0001)                 4.200427377313133E+10,      /* I =100 */
(PID.TID 0000.0001)                 4.931323764668228E+10,      /* I =101 */
(PID.TID 0000.0001)                 5.597545074899420E+10,      /* I =102 */
(PID.TID 0000.0001)                 6.205603937791459E+10,      /* I =103 */
(PID.TID 0000.0001)                 6.758299971934573E+10,      /* I =104 */
(PID.TID 0000.0001)                 7.256155653843707E+10,      /* I =105 */
(PID.TID 0000.0001)                 7.698291833687604E+10,      /* I =106 */
(PID.TID 0000.0001)                 8.083005486272009E+10,      /* I =107 */
(PID.TID 0000.0001)                 8.408183191745641E+10,      /* I =108 */
(PID.TID 0000.0001)                 8.671615787312848E+10,      /* I =109 */
(PID.TID 0000.0001)                 8.871245486529788E+10,      /* I =110 */
(PID.TID 0000.0001)                 9.005359372079962E+10,      /* I =111 */
(PID.TID 0000.0001)     2 @  9.072735712796770E+10,             /* I =112:113 */
(PID.TID 0000.0001)                 9.005359372079962E+10,      /* I =114 */
(PID.TID 0000.0001)                 8.871245486529788E+10,      /* I =115 */
(PID.TID 0000.0001)                 8.671615787312848E+10,      /* I =116 */
(PID.TID 0000.0001)                 8.408183191745641E+10,      /* I =117 */
(PID.TID 0000.0001)                 8.083005486272009E+10,      /* I =118 */
(PID.TID 0000.0001)                 7.698291833687604E+10,      /* I =119 */
(PID.TID 0000.0001)                 7.256155653843707E+10,      /* I =120 */
(PID.TID 0000.0001)                 6.758299971934573E+10,      /* I =121 */
(PID.TID 0000.0001)                 6.205603937791459E+10,      /* I =122 */
(PID.TID 0000.0001)                 5.597545074899420E+10,      /* I =123 */
(PID.TID 0000.0001)                 4.931323764668228E+10,      /* I =124 */
(PID.TID 0000.0001)                 4.200427377313133E+10,      /* I =125 */
(PID.TID 0000.0001)                 3.392265412140352E+10,      /* I =126 */
(PID.TID 0000.0001)                 2.487202533723945E+10,      /* I =127 */
(PID.TID 0000.0001)     2 @  1.549786705672200E+10,             /* I =128:129 */
(PID.TID 0000.0001)                 2.487202533723945E+10,      /* I =130 */
(PID.TID 0000.0001)                 3.392265412140352E+10,      /* I =131 */
(PID.TID 0000.0001)                 4.200427377313133E+10,      /* I =132 */
(PID.TID 0000.0001)                 4.931323764668228E+10,      /* I =133 */
(PID.TID 0000.0001)                 5.597545074899420E+10,      /* I =134 */
(PID.TID 0000.0001)                 6.205603937791459E+10,      /* I =135 */
(PID.TID 0000.0001)                 6.758299971934573E+10,      /* I =136 */
(PID.TID 0000.0001)                 7.256155653843707E+10,      /* I =137 */
(PID.TID 0000.0001)                 7.698291833687604E+10,      /* I =138 */
(PID.TID 0000.0001)                 8.083005486272009E+10,      /* I =139 */
(PID.TID 0000.0001)                 8.408183191745641E+10,      /* I =140 */
(PID.TID 0000.0001)                 8.671615787312848E+10,      /* I =141 */
(PID.TID 0000.0001)                 8.871245486529788E+10,      /* I =142 */
(PID.TID 0000.0001)                 9.005359372079962E+10,      /* I =143 */
(PID.TID 0000.0001)     2 @  9.072735712796770E+10,             /* I =144:145 */
(PID.TID 0000.0001)                 9.005359372079962E+10,      /* I =146 */
(PID.TID 0000.0001)                 8.871245486529788E+10,      /* I =147 */
(PID.TID 0000.0001)                 8.671615787312848E+10,      /* I =148 */
(PID.TID 0000.0001)                 8.408183191745641E+10,      /* I =149 */
(PID.TID 0000.0001)                 8.083005486272009E+10,      /* I =150 */
(PID.TID 0000.0001)                 7.698291833687604E+10,      /* I =151 */
(PID.TID 0000.0001)                 7.256155653843707E+10,      /* I =152 */
(PID.TID 0000.0001)                 6.758299971934573E+10,      /* I =153 */
(PID.TID 0000.0001)                 6.205603937791459E+10,      /* I =154 */
(PID.TID 0000.0001)                 5.597545074899420E+10,      /* I =155 */
(PID.TID 0000.0001)                 4.931323764668228E+10,      /* I =156 */
(PID.TID 0000.0001)                 4.200427377313133E+10,      /* I =157 */
(PID.TID 0000.0001)                 3.392265412140352E+10,      /* I =158 */
(PID.TID 0000.0001)                 2.487202533723945E+10,      /* I =159 */
(PID.TID 0000.0001)     2 @  1.549786705672200E+10,             /* I =160:161 */
(PID.TID 0000.0001)                 2.487202533723945E+10,      /* I =162 */
(PID.TID 0000.0001)                 3.392265412140352E+10,      /* I =163 */
(PID.TID 0000.0001)                 4.200427377313133E+10,      /* I =164 */
(PID.TID 0000.0001)                 4.931323764668228E+10,      /* I =165 */
(PID.TID 0000.0001)                 5.597545074899420E+10,      /* I =166 */
(PID.TID 0000.0001)                 6.205603937791459E+10,      /* I =167 */
(PID.TID 0000.0001)                 6.758299971934573E+10,      /* I =168 */
(PID.TID 0000.0001)                 7.256155653843707E+10,      /* I =169 */
(PID.TID 0000.0001)                 7.698291833687604E+10,      /* I =170 */
(PID.TID 0000.0001)                 8.083005486272009E+10,      /* I =171 */
(PID.TID 0000.0001)                 8.408183191745641E+10,      /* I =172 */
(PID.TID 0000.0001)                 8.671615787312848E+10,      /* I =173 */
(PID.TID 0000.0001)                 8.871245486529788E+10,      /* I =174 */
(PID.TID 0000.0001)                 9.005359372079962E+10,      /* I =175 */
(PID.TID 0000.0001)     2 @  9.072735712796770E+10,             /* I =176:177 */
(PID.TID 0000.0001)                 9.005359372079962E+10,      /* I =178 */
(PID.TID 0000.0001)                 8.871245486529788E+10,      /* I =179 */
(PID.TID 0000.0001)                 8.671615787312848E+10,      /* I =180 */
(PID.TID 0000.0001)                 8.408183191745641E+10,      /* I =181 */
(PID.TID 0000.0001)                 8.083005486272009E+10,      /* I =182 */
(PID.TID 0000.0001)                 7.698291833687604E+10,      /* I =183 */
(PID.TID 0000.0001)                 7.256155653843707E+10,      /* I =184 */
(PID.TID 0000.0001)                 6.758299971934573E+10,      /* I =185 */
(PID.TID 0000.0001)                 6.205603937791459E+10,      /* I =186 */
(PID.TID 0000.0001)                 5.597545074899420E+10,      /* I =187 */
(PID.TID 0000.0001)                 4.931323764668228E+10,      /* I =188 */
(PID.TID 0000.0001)                 4.200427377313133E+10,      /* I =189 */
(PID.TID 0000.0001)                 3.392265412140352E+10,      /* I =190 */
(PID.TID 0000.0001)                 2.487202533723945E+10,      /* I =191 */
(PID.TID 0000.0001)                 1.549786705672200E+10       /* I =192 */
(PID.TID 0000.0001)     ;
(PID.TID 0000.0001) rA =  /* rA(1,:,1,:) ( m - cartesian, degrees - spherical ) */
(PID.TID 0000.0001)                 1.549786705672200E+10,      /* J =  1 */
(PID.TID 0000.0001)                 2.487202533723945E+10,      /* J =  2 */
(PID.TID 0000.0001)                 3.392265412140352E+10,      /* J =  3 */
(PID.TID 0000.0001)                 4.200427377313133E+10,      /* J =  4 */
(PID.TID 0000.0001)                 4.931323764668228E+10,      /* J =  5 */
(PID.TID 0000.0001)                 5.597545074899419E+10,      /* J =  6 */
(PID.TID 0000.0001)                 6.205603937791459E+10,      /* J =  7 */
(PID.TID 0000.0001)                 6.758299971934573E+10,      /* J =  8 */
(PID.TID 0000.0001)                 7.256155653843707E+10,      /* J =  9 */
(PID.TID 0000.0001)                 7.698291833687604E+10,      /* J = 10 */
(PID.TID 0000.0001)                 8.083005486272011E+10,      /* J = 11 */
(PID.TID 0000.0001)                 8.408183191745641E+10,      /* J = 12 */
(PID.TID 0000.0001)                 8.671615787312848E+10,      /* J = 13 */
(PID.TID 0000.0001)                 8.871245486529788E+10,      /* J = 14 */
(PID.TID 0000.0001)                 9.005359372079964E+10,      /* J = 15 */
(PID.TID 0000.0001)     2 @  9.072735712796770E+10,             /* J = 16: 17 */
(PID.TID 0000.0001)                 9.005359372079964E+10,      /* J = 18 */
(PID.TID 0000.0001)                 8.871245486529788E+10,      /* J = 19 */
(PID.TID 0000.0001)                 8.671615787312848E+10,      /* J = 20 */
(PID.TID 0000.0001)                 8.408183191745641E+10,      /* J = 21 */
(PID.TID 0000.0001)                 8.083005486272011E+10,      /* J = 22 */
(PID.TID 0000.0001)                 7.698291833687604E+10,      /* J = 23 */
(PID.TID 0000.0001)                 7.256155653843707E+10,      /* J = 24 */
(PID.TID 0000.0001)                 6.758299971934573E+10,      /* J = 25 */
(PID.TID 0000.0001)                 6.205603937791459E+10,      /* J = 26 */
(PID.TID 0000.0001)                 5.597545074899419E+10,      /* J = 27 */
(PID.TID 0000.0001)                 4.931323764668228E+10,      /* J = 28 */
(PID.TID 0000.0001)                 4.200427377313133E+10,      /* J = 29 */
(PID.TID 0000.0001)                 3.392265412140352E+10,      /* J = 30 */
(PID.TID 0000.0001)                 2.487202533723945E+10,      /* J = 31 */
(PID.TID 0000.0001)                 1.549786705672200E+10       /* J = 32 */
(PID.TID 0000.0001)     ;
(PID.TID 0000.0001) rAw =  /* rAw(:,1,:,1) ( m - cartesian, degrees - spherical ) */
(PID.TID 0000.0001)                 1.146542574196578E+10,      /* I =  1 */
(PID.TID 0000.0001)                 1.953030837147821E+10,      /* I =  2 */
(PID.TID 0000.0001)                 2.933967873337320E+10,      /* I =  3 */
(PID.TID 0000.0001)                 3.796176706541101E+10,      /* I =  4 */
(PID.TID 0000.0001)                 4.567569462064098E+10,      /* I =  5 */
(PID.TID 0000.0001)                 5.267377164042021E+10,      /* I =  6 */
(PID.TID 0000.0001)                 5.905615583203223E+10,      /* I =  7 */
(PID.TID 0000.0001)                 6.487043381386549E+10,      /* I =  8 */
(PID.TID 0000.0001)                 7.013339442433482E+10,      /* I =  9 */
(PID.TID 0000.0001)                 7.484316069116351E+10,      /* I = 10 */
(PID.TID 0000.0001)                 7.898662143005907E+10,      /* I = 11 */
(PID.TID 0000.0001)                 8.254445101987663E+10,      /* I = 12 */
(PID.TID 0000.0001)                 8.549478360691351E+10,      /* I = 13 */
(PID.TID 0000.0001)                 8.781604517750543E+10,      /* I = 14 */
(PID.TID 0000.0001)                 8.948917519517891E+10,      /* I = 15 */
(PID.TID 0000.0001)                 9.049933392602551E+10,      /* I = 16 */
(PID.TID 0000.0001)                 9.083715262395342E+10,      /* I = 17 */
(PID.TID 0000.0001)                 9.049933392602551E+10,      /* I = 18 */
(PID.TID 0000.0001)                 8.948917519517891E+10,      /* I = 19 */
(PID.TID 0000.0001)                 8.781604517750543E+10,      /* I = 20 */
(PID.TID 0000.0001)                 8.549478360691351E+10,      /* I = 21 */
(PID.TID 0000.0001)                 8.254445101987663E+10,      /* I = 22 */
(PID.TID 0000.0001)                 7.898662143005907E+10,      /* I = 23 */
(PID.TID 0000.0001)                 7.484316069116351E+10,      /* I = 24 */
(PID.TID 0000.0001)                 7.013339442433482E+10,      /* I = 25 */
(PID.TID 0000.0001)                 6.487043381386549E+10,      /* I = 26 */
(PID.TID 0000.0001)                 5.905615583203223E+10,      /* I = 27 */
(PID.TID 0000.0001)                 5.267377164042021E+10,      /* I = 28 */
(PID.TID 0000.0001)                 4.567569462064098E+10,      /* I = 29 */
(PID.TID 0000.0001)                 3.796176706541101E+10,      /* I = 30 */
(PID.TID 0000.0001)                 2.933967873337320E+10,      /* I = 31 */
(PID.TID 0000.0001)                 1.953030837147821E+10,      /* I = 32 */
(PID.TID 0000.0001)                 1.146542574196578E+10,      /* I = 33 */
(PID.TID 0000.0001)                 1.953030837147821E+10,      /* I = 34 */
(PID.TID 0000.0001)                 2.933967873337320E+10,      /* I = 35 */
(PID.TID 0000.0001)                 3.796176706541101E+10,      /* I = 36 */
(PID.TID 0000.0001)                 4.567569462064098E+10,      /* I = 37 */
(PID.TID 0000.0001)                 5.267377164042021E+10,      /* I = 38 */
(PID.TID 0000.0001)                 5.905615583203223E+10,      /* I = 39 */
(PID.TID 0000.0001)                 6.487043381386549E+10,      /* I = 40 */
(PID.TID 0000.0001)                 7.013339442433482E+10,      /* I = 41 */
(PID.TID 0000.0001)                 7.484316069116351E+10,      /* I = 42 */
(PID.TID 0000.0001)                 7.898662143005907E+10,      /* I = 43 */
(PID.TID 0000.0001)                 8.254445101987663E+10,      /* I = 44 */
(PID.TID 0000.0001)                 8.549478360691351E+10,      /* I = 45 */
(PID.TID 0000.0001)                 8.781604517750543E+10,      /* I = 46 */
(PID.TID 0000.0001)                 8.948917519517891E+10,      /* I = 47 */
(PID.TID 0000.0001)                 9.049933392602551E+10,      /* I = 48 */
(PID.TID 0000.0001)                 9.083715262395342E+10,      /* I = 49 */
(PID.TID 0000.0001)                 9.049933392602551E+10,      /* I = 50 */
(PID.TID 0000.0001)                 8.948917519517891E+10,      /* I = 51 */
(PID.TID 0000.0001)                 8.781604517750543E+10,      /* I = 52 */
(PID.TID 0000.0001)                 8.549478360691351E+10,      /* I = 53 */
(PID.TID 0000.0001)                 8.254445101987663E+10,      /* I = 54 */
(PID.TID 0000.0001)                 7.898662143005907E+10,      /* I = 55 */
(PID.TID 0000.0001)                 7.484316069116351E+10,      /* I = 56 */
(PID.TID 0000.0001)                 7.013339442433482E+10,      /* I = 57 */
(PID.TID 0000.0001)                 6.487043381386549E+10,      /* I = 58 */
(PID.TID 0000.0001)                 5.905615583203223E+10,      /* I = 59 */
(PID.TID 0000.0001)                 5.267377164042021E+10,      /* I = 60 */
(PID.TID 0000.0001)                 4.567569462064098E+10,      /* I = 61 */
(PID.TID 0000.0001)                 3.796176706541101E+10,      /* I = 62 */
(PID.TID 0000.0001)                 2.933967873337320E+10,      /* I = 63 */
(PID.TID 0000.0001)                 1.953030837147821E+10,      /* I = 64 */
(PID.TID 0000.0001)                 1.146542574196578E+10,      /* I = 65 */
(PID.TID 0000.0001)                 1.953030837147821E+10,      /* I = 66 */
(PID.TID 0000.0001)                 2.933967873337320E+10,      /* I = 67 */
(PID.TID 0000.0001)                 3.796176706541101E+10,      /* I = 68 */
(PID.TID 0000.0001)                 4.567569462064098E+10,      /* I = 69 */
(PID.TID 0000.0001)                 5.267377164042021E+10,      /* I = 70 */
(PID.TID 0000.0001)                 5.905615583203223E+10,      /* I = 71 */
(PID.TID 0000.0001)                 6.487043381386549E+10,      /* I = 72 */
(PID.TID 0000.0001)                 7.013339442433482E+10,      /* I = 73 */
(PID.TID 0000.0001)                 7.484316069116351E+10,      /* I = 74 */
(PID.TID 0000.0001)                 7.898662143005907E+10,      /* I = 75 */
(PID.TID 0000.0001)                 8.254445101987663E+10,      /* I = 76 */
(PID.TID 0000.0001)                 8.549478360691351E+10,      /* I = 77 */
(PID.TID 0000.0001)                 8.781604517750543E+10,      /* I = 78 */
(PID.TID 0000.0001)                 8.948917519517891E+10,      /* I = 79 */
(PID.TID 0000.0001)                 9.049933392602551E+10,      /* I = 80 */
(PID.TID 0000.0001)                 9.083715262395342E+10,      /* I = 81 */
(PID.TID 0000.0001)                 9.049933392602551E+10,      /* I = 82 */
(PID.TID 0000.0001)                 8.948917519517891E+10,      /* I = 83 */
(PID.TID 0000.0001)                 8.781604517750543E+10,      /* I = 84 */
(PID.TID 0000.0001)                 8.549478360691351E+10,      /* I = 85 */
(PID.TID 0000.0001)                 8.254445101987663E+10,      /* I = 86 */
(PID.TID 0000.0001)                 7.898662143005907E+10,      /* I = 87 */
(PID.TID 0000.0001)                 7.484316069116351E+10,      /* I = 88 */
(PID.TID 0000.0001)                 7.013339442433482E+10,      /* I = 89 */
(PID.TID 0000.0001)                 6.487043381386549E+10,      /* I = 90 */
(PID.TID 0000.0001)                 5.905615583203223E+10,      /* I = 91 */
(PID.TID 0000.0001)                 5.267377164042021E+10,      /* I = 92 */
(PID.TID 0000.0001)                 4.567569462064098E+10,      /* I = 93 */
(PID.TID 0000.0001)                 3.796176706541101E+10,      /* I = 94 */
(PID.TID 0000.0001)                 2.933967873337320E+10,      /* I = 95 */
(PID.TID 0000.0001)                 1.953030837147821E+10,      /* I = 96 */
(PID.TID 0000.0001)                 1.146542574196578E+10,      /* I = 97 */
(PID.TID 0000.0001)                 1.953030837147821E+10,      /* I = 98 */
(PID.TID 0000.0001)                 2.933967873337320E+10,      /* I = 99 */
(PID.TID 0000.0001)                 3.796176706541101E+10,      /* I =100 */
(PID.TID 0000.0001)                 4.567569462064098E+10,      /* I =101 */
(PID.TID 0000.0001)                 5.267377164042021E+10,      /* I =102 */
(PID.TID 0000.0001)                 5.905615583203223E+10,      /* I =103 */
(PID.TID 0000.0001)                 6.487043381386549E+10,      /* I =104 */
(PID.TID 0000.0001)                 7.013339442433482E+10,      /* I =105 */
(PID.TID 0000.0001)                 7.484316069116351E+10,      /* I =106 */
(PID.TID 0000.0001)                 7.898662143005907E+10,      /* I =107 */
(PID.TID 0000.0001)                 8.254445101987663E+10,      /* I =108 */
(PID.TID 0000.0001)                 8.549478360691351E+10,      /* I =109 */
(PID.TID 0000.0001)                 8.781604517750543E+10,      /* I =110 */
(PID.TID 0000.0001)                 8.948917519517891E+10,      /* I =111 */
(PID.TID 0000.0001)                 9.049933392602551E+10,      /* I =112 */
(PID.TID 0000.0001)                 9.083715262395342E+10,      /* I =113 */
(PID.TID 0000.0001)                 9.049933392602551E+10,      /* I =114 */
(PID.TID 0000.0001)                 8.948917519517891E+10,      /* I =115 */
(PID.TID 0000.0001)                 8.781604517750543E+10,      /* I =116 */
(PID.TID 0000.0001)                 8.549478360691351E+10,      /* I =117 */
(PID.TID 0000.0001)                 8.254445101987663E+10,      /* I =118 */
(PID.TID 0000.0001)                 7.898662143005907E+10,      /* I =119 */
(PID.TID 0000.0001)                 7.484316069116351E+10,      /* I =120 */
(PID.TID 0000.0001)                 7.013339442433482E+10,      /* I =121 */
(PID.TID 0000.0001)                 6.487043381386549E+10,      /* I =122 */
(PID.TID 0000.0001)                 5.905615583203223E+10,      /* I =123 */
(PID.TID 0000.0001)                 5.267377164042021E+10,      /* I =124 */
(PID.TID 0000.0001)                 4.567569462064098E+10,      /* I =125 */
(PID.TID 0000.0001)                 3.796176706541101E+10,      /* I =126 */
(PID.TID 0000.0001)                 2.933967873337320E+10,      /* I =127 */
(PID.TID 0000.0001)                 1.953030837147821E+10,      /* I =128 */
(PID.TID 0000.0001)                 1.146542574196578E+10,      /* I =129 */
(PID.TID 0000.0001)                 1.953030837147821E+10,      /* I =130 */
(PID.TID 0000.0001)                 2.933967873337320E+10,      /* I =131 */
(PID.TID 0000.0001)                 3.796176706541101E+10,      /* I =132 */
(PID.TID 0000.0001)                 4.567569462064098E+10,      /* I =133 */
(PID.TID 0000.0001)                 5.267377164042021E+10,      /* I =134 */
(PID.TID 0000.0001)                 5.905615583203223E+10,      /* I =135 */
(PID.TID 0000.0001)                 6.487043381386549E+10,      /* I =136 */
(PID.TID 0000.0001)                 7.013339442433482E+10,      /* I =137 */
(PID.TID 0000.0001)                 7.484316069116351E+10,      /* I =138 */
(PID.TID 0000.0001)                 7.898662143005907E+10,      /* I =139 */
(PID.TID 0000.0001)                 8.254445101987663E+10,      /* I =140 */
(PID.TID 0000.0001)                 8.549478360691351E+10,      /* I =141 */
(PID.TID 0000.0001)                 8.781604517750543E+10,      /* I =142 */
(PID.TID 0000.0001)                 8.948917519517891E+10,      /* I =143 */
(PID.TID 0000.0001)                 9.049933392602551E+10,      /* I =144 */
(PID.TID 0000.0001)                 9.083715262395342E+10,      /* I =145 */
(PID.TID 0000.0001)                 9.049933392602551E+10,      /* I =146 */
(PID.TID 0000.0001)                 8.948917519517891E+10,      /* I =147 */
(PID.TID 0000.0001)                 8.781604517750543E+10,      /* I =148 */
(PID.TID 0000.0001)                 8.549478360691351E+10,      /* I =149 */
(PID.TID 0000.0001)                 8.254445101987663E+10,      /* I =150 */
(PID.TID 0000.0001)                 7.898662143005907E+10,      /* I =151 */
(PID.TID 0000.0001)                 7.484316069116351E+10,      /* I =152 */
(PID.TID 0000.0001)                 7.013339442433482E+10,      /* I =153 */
(PID.TID 0000.0001)                 6.487043381386549E+10,      /* I =154 */
(PID.TID 0000.0001)                 5.905615583203223E+10,      /* I =155 */
(PID.TID 0000.0001)                 5.267377164042021E+10,      /* I =156 */
(PID.TID 0000.0001)                 4.567569462064098E+10,      /* I =157 */
(PID.TID 0000.0001)                 3.796176706541101E+10,      /* I =158 */
(PID.TID 0000.0001)                 2.933967873337320E+10,      /* I =159 */
(PID.TID 0000.0001)                 1.953030837147821E+10,      /* I =160 */
(PID.TID 0000.0001)                 1.146542574196578E+10,      /* I =161 */
(PID.TID 0000.0001)                 1.953030837147821E+10,      /* I =162 */
(PID.TID 0000.0001)                 2.933967873337320E+10,      /* I =163 */
(PID.TID 0000.0001)                 3.796176706541101E+10,      /* I =164 */
(PID.TID 0000.0001)                 4.567569462064098E+10,      /* I =165 */
(PID.TID 0000.0001)                 5.267377164042021E+10,      /* I =166 */
(PID.TID 0000.0001)                 5.905615583203223E+10,      /* I =167 */
(PID.TID 0000.0001)                 6.487043381386549E+10,      /* I =168 */
(PID.TID 0000.0001)                 7.013339442433482E+10,      /* I =169 */
(PID.TID 0000.0001)                 7.484316069116351E+10,      /* I =170 */
(PID.TID 0000.0001)                 7.898662143005907E+10,      /* I =171 */
(PID.TID 0000.0001)                 8.254445101987663E+10,      /* I =172 */
(PID.TID 0000.0001)                 8.549478360691351E+10,      /* I =173 */
(PID.TID 0000.0001)                 8.781604517750543E+10,      /* I =174 */
(PID.TID 0000.0001)                 8.948917519517891E+10,      /* I =175 */
(PID.TID 0000.0001)                 9.049933392602551E+10,      /* I =176 */
(PID.TID 0000.0001)                 9.083715262395342E+10,      /* I =177 */
(PID.TID 0000.0001)                 9.049933392602551E+10,      /* I =178 */
(PID.TID 0000.0001)                 8.948917519517891E+10,      /* I =179 */
(PID.TID 0000.0001)                 8.781604517750543E+10,      /* I =180 */
(PID.TID 0000.0001)                 8.549478360691351E+10,      /* I =181 */
(PID.TID 0000.0001)                 8.254445101987663E+10,      /* I =182 */
(PID.TID 0000.0001)                 7.898662143005907E+10,      /* I =183 */
(PID.TID 0000.0001)                 7.484316069116351E+10,      /* I =184 */
(PID.TID 0000.0001)                 7.013339442433482E+10,      /* I =185 */
(PID.TID 0000.0001)                 6.487043381386549E+10,      /* I =186 */
(PID.TID 0000.0001)                 5.905615583203223E+10,      /* I =187 */
(PID.TID 0000.0001)                 5.267377164042021E+10,      /* I =188 */
(PID.TID 0000.0001)                 4.567569462064098E+10,      /* I =189 */
(PID.TID 0000.0001)                 3.796176706541101E+10,      /* I =190 */
(PID.TID 0000.0001)                 2.933967873337320E+10,      /* I =191 */
(PID.TID 0000.0001)                 1.953030837147821E+10       /* I =192 */
(PID.TID 0000.0001)     ;
(PID.TID 0000.0001) rAw =  /* rAw(1,:,1,:) ( m - cartesian, degrees - spherical ) */
(PID.TID 0000.0001)                 1.146542574196578E+10,      /* J =  1 */
(PID.TID 0000.0001)                 2.377787005983833E+10,      /* J =  2 */
(PID.TID 0000.0001)                 3.336273018972140E+10,      /* J =  3 */
(PID.TID 0000.0001)                 4.165099566747280E+10,      /* J =  4 */
(PID.TID 0000.0001)                 4.906782896008959E+10,      /* J =  5 */
(PID.TID 0000.0001)                 5.579613053300137E+10,      /* J =  6 */
(PID.TID 0000.0001)                 6.192151981164894E+10,      /* J =  7 */
(PID.TID 0000.0001)                 6.748097638954340E+10,      /* J =  8 */
(PID.TID 0000.0001)                 7.248418794208269E+10,      /* J =  9 */
(PID.TID 0000.0001)                 7.692477203447566E+10,      /* J = 10 */
(PID.TID 0000.0001)                 8.078707194826852E+10,      /* J = 11 */
(PID.TID 0000.0001)                 8.405076334249313E+10,      /* J = 12 */
(PID.TID 0000.0001)                 8.669423991218034E+10,      /* J = 13 */
(PID.TID 0000.0001)                 8.869721460381146E+10,      /* J = 14 */
(PID.TID 0000.0001)                 9.004272888354184E+10,      /* J = 15 */
(PID.TID 0000.0001)     2 @  9.071865929421040E+10,             /* J = 16: 17 */
(PID.TID 0000.0001)                 9.004272888354184E+10,      /* J = 18 */
(PID.TID 0000.0001)                 8.869721460381146E+10,      /* J = 19 */
(PID.TID 0000.0001)                 8.669423991218034E+10,      /* J = 20 */
(PID.TID 0000.0001)                 8.405076334249313E+10,      /* J = 21 */
(PID.TID 0000.0001)                 8.078707194826852E+10,      /* J = 22 */
(PID.TID 0000.0001)                 7.692477203447566E+10,      /* J = 23 */
(PID.TID 0000.0001)                 7.248418794208269E+10,      /* J = 24 */
(PID.TID 0000.0001)                 6.748097638954340E+10,      /* J = 25 */
(PID.TID 0000.0001)                 6.192151981164894E+10,      /* J = 26 */
(PID.TID 0000.0001)                 5.579613053300137E+10,      /* J = 27 */
(PID.TID 0000.0001)                 4.906782896008959E+10,      /* J = 28 */
(PID.TID 0000.0001)                 4.165099566747280E+10,      /* J = 29 */
(PID.TID 0000.0001)                 3.336273018972140E+10,      /* J = 30 */
(PID.TID 0000.0001)                 2.377787005983833E+10,      /* J = 31 */
(PID.TID 0000.0001)                 1.146542574196578E+10       /* J = 32 */
(PID.TID 0000.0001)     ;
(PID.TID 0000.0001) rAs =  /* rAs(:,1,:,1) ( m - cartesian, degrees - spherical ) */
(PID.TID 0000.0001)                 1.146542574196578E+10,      /* I =  1 */
(PID.TID 0000.0001)                 2.377787005983833E+10,      /* I =  2 */
(PID.TID 0000.0001)                 3.336273018972140E+10,      /* I =  3 */
(PID.TID 0000.0001)                 4.165099566747280E+10,      /* I =  4 */
(PID.TID 0000.0001)                 4.906782896008959E+10,      /* I =  5 */
(PID.TID 0000.0001)                 5.579613053300137E+10,      /* I =  6 */
(PID.TID 0000.0001)                 6.192151981164894E+10,      /* I =  7 */
(PID.TID 0000.0001)                 6.748097638954340E+10,      /* I =  8 */
(PID.TID 0000.0001)                 7.248418794208269E+10,      /* I =  9 */
(PID.TID 0000.0001)                 7.692477203447566E+10,      /* I = 10 */
(PID.TID 0000.0001)                 8.078707194826852E+10,      /* I = 11 */
(PID.TID 0000.0001)                 8.405076334249313E+10,      /* I = 12 */
(PID.TID 0000.0001)                 8.669423991218034E+10,      /* I = 13 */
(PID.TID 0000.0001)                 8.869721460381146E+10,      /* I = 14 */
(PID.TID 0000.0001)                 9.004272888354184E+10,      /* I = 15 */
(PID.TID 0000.0001)     2 @  9.071865929421040E+10,             /* I = 16: 17 */
(PID.TID 0000.0001)                 9.004272888354184E+10,      /* I = 18 */
(PID.TID 0000.0001)                 8.869721460381146E+10,      /* I = 19 */
(PID.TID 0000.0001)                 8.669423991218034E+10,      /* I = 20 */
(PID.TID 0000.0001)                 8.405076334249313E+10,      /* I = 21 */
(PID.TID 0000.0001)                 8.078707194826852E+10,      /* I = 22 */
(PID.TID 0000.0001)                 7.692477203447566E+10,      /* I = 23 */
(PID.TID 0000.0001)                 7.248418794208269E+10,      /* I = 24 */
(PID.TID 0000.0001)                 6.748097638954340E+10,      /* I = 25 */
(PID.TID 0000.0001)                 6.192151981164894E+10,      /* I = 26 */
(PID.TID 0000.0001)                 5.579613053300137E+10,      /* I = 27 */
(PID.TID 0000.0001)                 4.906782896008959E+10,      /* I = 28 */
(PID.TID 0000.0001)                 4.165099566747280E+10,      /* I = 29 */
(PID.TID 0000.0001)                 3.336273018972140E+10,      /* I = 30 */
(PID.TID 0000.0001)                 2.377787005983833E+10,      /* I = 31 */
(PID.TID 0000.0001)     2 @  1.146542574196578E+10,             /* I = 32: 33 */
(PID.TID 0000.0001)                 2.377787005983833E+10,      /* I = 34 */
(PID.TID 0000.0001)                 3.336273018972140E+10,      /* I = 35 */
(PID.TID 0000.0001)                 4.165099566747280E+10,      /* I = 36 */
(PID.TID 0000.0001)                 4.906782896008959E+10,      /* I = 37 */
(PID.TID 0000.0001)                 5.579613053300137E+10,      /* I = 38 */
(PID.TID 0000.0001)                 6.192151981164894E+10,      /* I = 39 */
(PID.TID 0000.0001)                 6.748097638954340E+10,      /* I = 40 */
(PID.TID 0000.0001)                 7.248418794208269E+10,      /* I = 41 */
(PID.TID 0000.0001)                 7.692477203447566E+10,      /* I = 42 */
(PID.TID 0000.0001)                 8.078707194826852E+10,      /* I = 43 */
(PID.TID 0000.0001)                 8.405076334249313E+10,      /* I = 44 */
(PID.TID 0000.0001)                 8.669423991218034E+10,      /* I = 45 */
(PID.TID 0000.0001)                 8.869721460381146E+10,      /* I = 46 */
(PID.TID 0000.0001)                 9.004272888354184E+10,      /* I = 47 */
(PID.TID 0000.0001)     2 @  9.071865929421040E+10,             /* I = 48: 49 */
(PID.TID 0000.0001)                 9.004272888354184E+10,      /* I = 50 */
(PID.TID 0000.0001)                 8.869721460381146E+10,      /* I = 51 */
(PID.TID 0000.0001)                 8.669423991218034E+10,      /* I = 52 */
(PID.TID 0000.0001)                 8.405076334249313E+10,      /* I = 53 */
(PID.TID 0000.0001)                 8.078707194826852E+10,      /* I = 54 */
(PID.TID 0000.0001)                 7.692477203447566E+10,      /* I = 55 */
(PID.TID 0000.0001)                 7.248418794208269E+10,      /* I = 56 */
(PID.TID 0000.0001)                 6.748097638954340E+10,      /* I = 57 */
(PID.TID 0000.0001)                 6.192151981164894E+10,      /* I = 58 */
(PID.TID 0000.0001)                 5.579613053300137E+10,      /* I = 59 */
(PID.TID 0000.0001)                 4.906782896008959E+10,      /* I = 60 */
(PID.TID 0000.0001)                 4.165099566747280E+10,      /* I = 61 */
(PID.TID 0000.0001)                 3.336273018972140E+10,      /* I = 62 */
(PID.TID 0000.0001)                 2.377787005983833E+10,      /* I = 63 */
(PID.TID 0000.0001)     2 @  1.146542574196578E+10,             /* I = 64: 65 */
(PID.TID 0000.0001)                 2.377787005983833E+10,      /* I = 66 */
(PID.TID 0000.0001)                 3.336273018972140E+10,      /* I = 67 */
(PID.TID 0000.0001)                 4.165099566747280E+10,      /* I = 68 */
(PID.TID 0000.0001)                 4.906782896008959E+10,      /* I = 69 */
(PID.TID 0000.0001)                 5.579613053300137E+10,      /* I = 70 */
(PID.TID 0000.0001)                 6.192151981164894E+10,      /* I = 71 */
(PID.TID 0000.0001)                 6.748097638954340E+10,      /* I = 72 */
(PID.TID 0000.0001)                 7.248418794208269E+10,      /* I = 73 */
(PID.TID 0000.0001)                 7.692477203447566E+10,      /* I = 74 */
(PID.TID 0000.0001)                 8.078707194826852E+10,      /* I = 75 */
(PID.TID 0000.0001)                 8.405076334249313E+10,      /* I = 76 */
(PID.TID 0000.0001)                 8.669423991218034E+10,      /* I = 77 */
(PID.TID 0000.0001)                 8.869721460381146E+10,      /* I = 78 */
(PID.TID 0000.0001)                 9.004272888354184E+10,      /* I = 79 */
(PID.TID 0000.0001)     2 @  9.071865929421040E+10,             /* I = 80: 81 */
(PID.TID 0000.0001)                 9.004272888354184E+10,      /* I = 82 */
(PID.TID 0000.0001)                 8.869721460381146E+10,      /* I = 83 */
(PID.TID 0000.0001)                 8.669423991218034E+10,      /* I = 84 */
(PID.TID 0000.0001)                 8.405076334249313E+10,      /* I = 85 */
(PID.TID 0000.0001)                 8.078707194826852E+10,      /* I = 86 */
(PID.TID 0000.0001)                 7.692477203447566E+10,      /* I = 87 */
(PID.TID 0000.0001)                 7.248418794208269E+10,      /* I = 88 */
(PID.TID 0000.0001)                 6.748097638954340E+10,      /* I = 89 */
(PID.TID 0000.0001)                 6.192151981164894E+10,      /* I = 90 */
(PID.TID 0000.0001)                 5.579613053300137E+10,      /* I = 91 */
(PID.TID 0000.0001)                 4.906782896008959E+10,      /* I = 92 */
(PID.TID 0000.0001)                 4.165099566747280E+10,      /* I = 93 */
(PID.TID 0000.0001)                 3.336273018972140E+10,      /* I = 94 */
(PID.TID 0000.0001)                 2.377787005983833E+10,      /* I = 95 */
(PID.TID 0000.0001)     2 @  1.146542574196578E+10,             /* I = 96: 97 */
(PID.TID 0000.0001)                 2.377787005983833E+10,      /* I = 98 */
(PID.TID 0000.0001)                 3.336273018972140E+10,      /* I = 99 */
(PID.TID 0000.0001)                 4.165099566747280E+10,      /* I =100 */
(PID.TID 0000.0001)                 4.906782896008959E+10,      /* I =101 */
(PID.TID 0000.0001)                 5.579613053300137E+10,      /* I =102 */
(PID.TID 0000.0001)                 6.192151981164894E+10,      /* I =103 */
(PID.TID 0000.0001)                 6.748097638954340E+10,      /* I =104 */
(PID.TID 0000.0001)                 7.248418794208269E+10,      /* I =105 */
(PID.TID 0000.0001)                 7.692477203447566E+10,      /* I =106 */
(PID.TID 0000.0001)                 8.078707194826852E+10,      /* I =107 */
(PID.TID 0000.0001)                 8.405076334249313E+10,      /* I =108 */
(PID.TID 0000.0001)                 8.669423991218034E+10,      /* I =109 */
(PID.TID 0000.0001)                 8.869721460381146E+10,      /* I =110 */
(PID.TID 0000.0001)                 9.004272888354184E+10,      /* I =111 */
(PID.TID 0000.0001)     2 @  9.071865929421040E+10,             /* I =112:113 */
(PID.TID 0000.0001)                 9.004272888354184E+10,      /* I =114 */
(PID.TID 0000.0001)                 8.869721460381146E+10,      /* I =115 */
(PID.TID 0000.0001)                 8.669423991218034E+10,      /* I =116 */
(PID.TID 0000.0001)                 8.405076334249313E+10,      /* I =117 */
(PID.TID 0000.0001)                 8.078707194826852E+10,      /* I =118 */
(PID.TID 0000.0001)                 7.692477203447566E+10,      /* I =119 */
(PID.TID 0000.0001)                 7.248418794208269E+10,      /* I =120 */
(PID.TID 0000.0001)                 6.748097638954340E+10,      /* I =121 */
(PID.TID 0000.0001)                 6.192151981164894E+10,      /* I =122 */
(PID.TID 0000.0001)                 5.579613053300137E+10,      /* I =123 */
(PID.TID 0000.0001)                 4.906782896008959E+10,      /* I =124 */
(PID.TID 0000.0001)                 4.165099566747280E+10,      /* I =125 */
(PID.TID 0000.0001)                 3.336273018972140E+10,      /* I =126 */
(PID.TID 0000.0001)                 2.377787005983833E+10,      /* I =127 */
(PID.TID 0000.0001)     2 @  1.146542574196578E+10,             /* I =128:129 */
(PID.TID 0000.0001)                 2.377787005983833E+10,      /* I =130 */
(PID.TID 0000.0001)                 3.336273018972140E+10,      /* I =131 */
(PID.TID 0000.0001)                 4.165099566747280E+10,      /* I =132 */
(PID.TID 0000.0001)                 4.906782896008959E+10,      /* I =133 */
(PID.TID 0000.0001)                 5.579613053300137E+10,      /* I =134 */
(PID.TID 0000.0001)                 6.192151981164894E+10,      /* I =135 */
(PID.TID 0000.0001)                 6.748097638954340E+10,      /* I =136 */
(PID.TID 0000.0001)                 7.248418794208269E+10,      /* I =137 */
(PID.TID 0000.0001)                 7.692477203447566E+10,      /* I =138 */
(PID.TID 0000.0001)                 8.078707194826852E+10,      /* I =139 */
(PID.TID 0000.0001)                 8.405076334249313E+10,      /* I =140 */
(PID.TID 0000.0001)                 8.669423991218034E+10,      /* I =141 */
(PID.TID 0000.0001)                 8.869721460381146E+10,      /* I =142 */
(PID.TID 0000.0001)                 9.004272888354184E+10,      /* I =143 */
(PID.TID 0000.0001)     2 @  9.071865929421040E+10,             /* I =144:145 */
(PID.TID 0000.0001)                 9.004272888354184E+10,      /* I =146 */
(PID.TID 0000.0001)                 8.869721460381146E+10,      /* I =147 */
(PID.TID 0000.0001)                 8.669423991218034E+10,      /* I =148 */
(PID.TID 0000.0001)                 8.405076334249313E+10,      /* I =149 */
(PID.TID 0000.0001)                 8.078707194826852E+10,      /* I =150 */
(PID.TID 0000.0001)                 7.692477203447566E+10,      /* I =151 */
(PID.TID 0000.0001)                 7.248418794208269E+10,      /* I =152 */
(PID.TID 0000.0001)                 6.748097638954340E+10,      /* I =153 */
(PID.TID 0000.0001)                 6.192151981164894E+10,      /* I =154 */
(PID.TID 0000.0001)                 5.579613053300137E+10,      /* I =155 */
(PID.TID 0000.0001)                 4.906782896008959E+10,      /* I =156 */
(PID.TID 0000.0001)                 4.165099566747280E+10,      /* I =157 */
(PID.TID 0000.0001)                 3.336273018972140E+10,      /* I =158 */
(PID.TID 0000.0001)                 2.377787005983833E+10,      /* I =159 */
(PID.TID 0000.0001)     2 @  1.146542574196578E+10,             /* I =160:161 */
(PID.TID 0000.0001)                 2.377787005983833E+10,      /* I =162 */
(PID.TID 0000.0001)                 3.336273018972140E+10,      /* I =163 */
(PID.TID 0000.0001)                 4.165099566747280E+10,      /* I =164 */
(PID.TID 0000.0001)                 4.906782896008959E+10,      /* I =165 */
(PID.TID 0000.0001)                 5.579613053300137E+10,      /* I =166 */
(PID.TID 0000.0001)                 6.192151981164894E+10,      /* I =167 */
(PID.TID 0000.0001)                 6.748097638954340E+10,      /* I =168 */
(PID.TID 0000.0001)                 7.248418794208269E+10,      /* I =169 */
(PID.TID 0000.0001)                 7.692477203447566E+10,      /* I =170 */
(PID.TID 0000.0001)                 8.078707194826852E+10,      /* I =171 */
(PID.TID 0000.0001)                 8.405076334249313E+10,      /* I =172 */
(PID.TID 0000.0001)                 8.669423991218034E+10,      /* I =173 */
(PID.TID 0000.0001)                 8.869721460381146E+10,      /* I =174 */
(PID.TID 0000.0001)                 9.004272888354184E+10,      /* I =175 */
(PID.TID 0000.0001)     2 @  9.071865929421040E+10,             /* I =176:177 */
(PID.TID 0000.0001)                 9.004272888354184E+10,      /* I =178 */
(PID.TID 0000.0001)                 8.869721460381146E+10,      /* I =179 */
(PID.TID 0000.0001)                 8.669423991218034E+10,      /* I =180 */
(PID.TID 0000.0001)                 8.405076334249313E+10,      /* I =181 */
(PID.TID 0000.0001)                 8.078707194826852E+10,      /* I =182 */
(PID.TID 0000.0001)                 7.692477203447566E+10,      /* I =183 */
(PID.TID 0000.0001)                 7.248418794208269E+10,      /* I =184 */
(PID.TID 0000.0001)                 6.748097638954340E+10,      /* I =185 */
(PID.TID 0000.0001)                 6.192151981164894E+10,      /* I =186 */
(PID.TID 0000.0001)                 5.579613053300137E+10,      /* I =187 */
(PID.TID 0000.0001)                 4.906782896008959E+10,      /* I =188 */
(PID.TID 0000.0001)                 4.165099566747280E+10,      /* I =189 */
(PID.TID 0000.0001)                 3.336273018972140E+10,      /* I =190 */
(PID.TID 0000.0001)                 2.377787005983833E+10,      /* I =191 */
(PID.TID 0000.0001)                 1.146542574196578E+10       /* I =192 */
(PID.TID 0000.0001)     ;
(PID.TID 0000.0001) rAs =  /* rAs(1,:,1,:) ( m - cartesian, degrees - spherical ) */
(PID.TID 0000.0001)                 1.146542574196578E+10,      /* J =  1 */
(PID.TID 0000.0001)                 1.953030837147821E+10,      /* J =  2 */
(PID.TID 0000.0001)                 2.933967873337320E+10,      /* J =  3 */
(PID.TID 0000.0001)                 3.796176706541101E+10,      /* J =  4 */
(PID.TID 0000.0001)                 4.567569462064098E+10,      /* J =  5 */
(PID.TID 0000.0001)                 5.267377164042021E+10,      /* J =  6 */
(PID.TID 0000.0001)                 5.905615583203223E+10,      /* J =  7 */
(PID.TID 0000.0001)                 6.487043381386549E+10,      /* J =  8 */
(PID.TID 0000.0001)                 7.013339442433482E+10,      /* J =  9 */
(PID.TID 0000.0001)                 7.484316069116351E+10,      /* J = 10 */
(PID.TID 0000.0001)                 7.898662143005907E+10,      /* J = 11 */
(PID.TID 0000.0001)                 8.254445101987663E+10,      /* J = 12 */
(PID.TID 0000.0001)                 8.549478360691351E+10,      /* J = 13 */
(PID.TID 0000.0001)                 8.781604517750543E+10,      /* J = 14 */
(PID.TID 0000.0001)                 8.948917519517891E+10,      /* J = 15 */
(PID.TID 0000.0001)                 9.049933392602551E+10,      /* J = 16 */
(PID.TID 0000.0001)                 9.083715262395342E+10,      /* J = 17 */
(PID.TID 0000.0001)                 9.049933392602551E+10,      /* J = 18 */
(PID.TID 0000.0001)                 8.948917519517891E+10,      /* J = 19 */
(PID.TID 0000.0001)                 8.781604517750543E+10,      /* J = 20 */
(PID.TID 0000.0001)                 8.549478360691351E+10,      /* J = 21 */
(PID.TID 0000.0001)                 8.254445101987663E+10,      /* J = 22 */
(PID.TID 0000.0001)                 7.898662143005907E+10,      /* J = 23 */
(PID.TID 0000.0001)                 7.484316069116351E+10,      /* J = 24 */
(PID.TID 0000.0001)                 7.013339442433482E+10,      /* J = 25 */
(PID.TID 0000.0001)                 6.487043381386549E+10,      /* J = 26 */
(PID.TID 0000.0001)                 5.905615583203223E+10,      /* J = 27 */
(PID.TID 0000.0001)                 5.267377164042021E+10,      /* J = 28 */
(PID.TID 0000.0001)                 4.567569462064098E+10,      /* J = 29 */
(PID.TID 0000.0001)                 3.796176706541101E+10,      /* J = 30 */
(PID.TID 0000.0001)                 2.933967873337320E+10,      /* J = 31 */
(PID.TID 0000.0001)                 1.953030837147821E+10       /* J = 32 */
(PID.TID 0000.0001)     ;
(PID.TID 0000.0001) // =======================================================
(PID.TID 0000.0001) // End of Model config. summary
(PID.TID 0000.0001) // =======================================================
(PID.TID 0000.0001) 
(PID.TID 0000.0001)  MDSREADFIELD: opening global file: U.input.20Lev
(PID.TID 0000.0001)  MDSREADFIELD: opening global file: V.input.20Lev
(PID.TID 0000.0001)  MDSREADFIELD: opening global file: T.input.20Lev
(PID.TID 0000.0001) // =======================================================
(PID.TID 0000.0001) // Field Initial Temperature at iteration          1
(PID.TID 0000.0001) // CMIN =          2.691107858050743E+02
(PID.TID 0000.0001) // CMAX =          3.112181164521968E+02
(PID.TID 0000.0001) // CINT =          1.559530764708242E+00
(PID.TID 0000.0001) // SYMBOLS (CMIN->CMAX): -abcdefghijklmnopqrstuvwxyz+
(PID.TID 0000.0001) //                  0.0: .
(PID.TID 0000.0001) // RANGE I (Lo:Hi:Step):(   1: 192:   1)
(PID.TID 0000.0001) // RANGE J (Lo:Hi:Step):(  32:   1:  -1)
(PID.TID 0000.0001) // RANGE K (Lo:Hi:Step):(   1:   1:   1)
(PID.TID 0000.0001) // =======================================================
(PID.TID 0000.0001) K =   1
(PID.TID 0000.0001)                I=10      I=20      I=30      I=40      I=50      I=60      I=70      I=80      I=90      I=100     I=110     I=120     I=130     I=140     I=150     I=160     I=170     I=180     I=190
(PID.TID 0000.0001) |--J--|123456789|123456789|123456789|123456789|123456789|123456789|123456789|123456789|123456789|123456789|123456789|123456789|123456789|123456789|123456789|123456789|123456789|123456789|123456789|12
(PID.TID 0000.0001)     32 jjkjjjjjihhhiiiihgfffghijjjjjkkllllkkjiihgghiijjiihgghhhhhhjjjkjjjiiiiiihhhhgggggffeefgghhijjjkklllmnoprstuvxyz+zzyxvutsrqpomllkjklmmnpqrstvwxyzzyxwvutrqponmlllkjjiiiihhgfffggfffffffghhghiiijj
(PID.TID 0000.0001)     31 llkkkkjjjjiiijjjihhgghijjkkkkklmllllkkjihhhjjkkkkkiiiiiihhikkkkkjiihhhgggfffffffffedeeffghiijjjkllmmnopqstuvxyzzzzyxvutsrqponmlljklmmnoqrrtuwxyzzyxxvutrqqponmmljjihhhgggfeeffeeeeeeeefggggghiii
(PID.TID 0000.0001)     30 lllkkkkkkjjjkklkjiihghjjkllllmmmmmlllkjjiijkklllkkkjjjiiiijkkkkljihgggffeeeeeefffedddeefgghiiiijkmmnoopqrtuvwyyzzyywvutssrponmlljklmnnoprstuvxyzzyxxvusrrqpoonmljihhhggffeedeeddeddeeeffffffghhi
(PID.TID 0000.0001)     29 mllllllllkklmnmlkjjiijkllmmmnnnnmmmllkkkkklmmmmllllkkjjjjjkllllmihggfeeddddddeeffedcddeefgghgghjklmooppqstuvwxyzzyxxvuttsrqpommljklmnoopqstuvxyzzyxwvussrrqponlkjihhggffeddddddddddddeeffeefgghh
(PID.TID 0000.0001)     28 mnnnnnnmmmnnoonmlkkjjklmnnnopooonmmmmmmllmnnnnmllmmllkkkklmmmnnniigfeddccccddddeeedccddeffggfghiklmnppqrstuwwxyzzyxwvuttsrqponmljkmnoopqrstuwxyzzyxwvussrrqponljjihgffeeeddddcccddddddeeeeeffggg
(PID.TID 0000.0001)     27 oooopooooooooonmmmmllmnoooopqpooonoonnnmnnnnooonnnnmllllmnooooooihhgeddccccccccccccccddeeffeffgiklmnopqrstuwwxyzzyxwwvutsrqpomlkjlnooppqrstuwxyzzyxwvutssrqponljihgffeeeddddccccccccccdddeeffggg
(PID.TID 0000.0001)     26 pqppppppqqppooonnnnnnnpqqqqqqqpppppppoooooopppqppoonnmnnopqqqqqqihhgfedccbbbbcbbbbccccddeeeeefgiklmnoprsstuwxyzzzyyxwvutsrqpnmljklnoppqqrssuvxyzzyxwvutsrqponlkjihgfeeddccccccccccccccddddefffgh
(PID.TID 0000.0001)     25 qqqpqqrrrqqppppppooopqrrrrrrrqqqpqqqqppqqqqqqrrrqpppoopqqrrsssrriihhfedccbbbbbbbbbbbcccddeeeeffhjklmnoqrstvwxyzzzyyxwvutsrponllkkmnoppqqrstuvwyzzyywvutsrqpnlkkihhfeedddcccbbccbcccccccddddeffgh
(PID.TID 0000.0001)     24 rrrrrsssrrrqqqqqqqqrsssssrrsrrrrrrrrrrrrrrssstssrrrqqqrsstttttttihhgfedcbbbaaaaabbbbbbccddeeeefgijlmmopqrsuwxyzzzzyxwvutsqpommlkjlmoppqqrstuvwyzzzywvutrqpomlkjihhgedddddccbbbbbccbbbbbbccdeefgh
(PID.TID 0000.0001)     23 sssstttsssrrrrrrrrsttttttsstssssssssssssstttuuutttssssttuuuuuuuvgggfedcbbbbaaaaaabbbbbbccdddeefghjklmnoqrsuvwyyzzzyxwvutrqpnmmlkjkmnopqqrstuvwyzzyywvusqponmkjihhhgedcccccbbbbbbbbbbbbbbbbcdefgg
(PID.TID 0000.0001)     22 tttuuutttsssssttttuvuutttttuuttttttttttuuuuvvvvvuuuuuuuvvvvvvvwwgffeddcbbbbaaaaaaabbbbbbcccddeefhiklmnoprsuvwxyzzzyyxvutrqpnmlkjiklmnopqrstuvwxyzyxwutrqponlkjjhggfeddccccbbaaaabbbaaaaabbcdefgg
(PID.TID 0000.0001)     21 vvvvvvvuuttttuuuvvwvvuuuuuuvvvvvvvvvvvvvvvwwwwwwvvvvvvvwwwwwwwxxgffedccbbbaaaaa-aabbaabbbcccdefghijklmoprsuvwxyzzzyxwvutsqpnmkjiijkmnnopqstuwwxyyyxwutrqpnmlkkjhgfeedcccbbbaaaaaaaaaaaaabbcdefff
(PID.TID 0000.0001)     20 wwwwwwwvvvuuvwwwwwxwwvvvvwwwwwwwwwwwwwwwwxxxxxxxxwwwwwxxxxxxxxyyhfedcccbbbaaaaa-aaaaaabbbccddefghhijklnprsuvwxyzzzyxwvutrqonljihijklnoopqrsuwxxyyyxwvtrqpnnmljjhgfeddccbbaaaaaaaaaa--aaabbbcdeef
(PID.TID 0000.0001)     19 yyyxxxxxwwwwxxxxxxxxxxxxxxxxxxxxxxyyxxxxyyyyyyyyyxxxxxyyyyyyyyyzhfddccbbbbaaaa---aaaaabbbcddeeefghiijkmoqstvvwyzzzyxwvtsqpnljihhijklmopprrsuvxxyyyxwvusqponmljjihfedcccbbaaaaaaaaaa--aaabbbcddef
(PID.TID 0000.0001)     18 yyyyyyyyyyyyyyyyyyyyyyyyyyyyyyyyyyyyyyyzzzzzzzzyyyyyyzzzzzzzzzzzhfedccbbbaaaa---aaaaaabbbccdeeeefghijkloqstuvwyzzzyxwusrpnlkjhgghiikmnpqrssuvxyyyxxwvusrppomlkjihfdccccbaaaa-aaaaaa-aaabbbbcddde
(PID.TID 0000.0001)     17 zzzzzyyyyzzzzzzzzzzzzzzzzzzzzzzzzzzzzzzzzzzzzzzzzzzzzzzzzzzzzzzzhgedccbbaaaaa---aaaabaabbbbceefffghikkloqstuvwyzzzyxvtsromlkihgfghijlnoqrstuwxyyyyxwvtsrqpomlkjhgfdccccbaaa----aaaaaaaabbbcccdde
(PID.TID 0000.0001)     16 zzzzzzzzzzzzzzzzzzzzzzzzzzzzzzzzzzzzz++zzzzzzyzzzzzzzzzzzzzzzzzzgfedccbbaaaaa---aaaaaaaabbbcdeefgghjklmoqstuvwyzzzywutsqonmkihgfgghjkmoqrstuwxyyyyxwvtsrqpomlkigffdcccbbaaa-----aaaaaaabbbcccdde
(PID.TID 0000.0001)     15 yyyyyyzzzyyyyyyyyyyyyyyyyyyyyyyyyzzzzzzzyyyyyyyyyyyyyyyyzzzzzzzyffedcccbaaaaa---aaaaaaaabbbccddegghjkmnpqstuvxyzzzxwutrqpomkihgggghikmoqrtuvwxyyyyxwvtsrqponljiggfdcccbbaaa------a-aaaaabbcccdde
(PID.TID 0000.0001)     14 xyyyyyyyyyyxxxxxxyyyxxyxxxxxxyyyyyyyyyyyyyyyxxxxxxxxxxxxxyyyyyyyeeeddccbaaaaa---aaaaaaabcccccddefhhjlmoprstvwxyzzyxwutrqpomkjihgghhjkmoqstuvwxyyyyxwvtsrrponljihgfdccbbaaaaa----aaaaaaabbbcccdde
(PID.TID 0000.0001)     13 xxxwwxxxxxxwwwwwwxxxxxxwwwwwwxxxxxxxxxxxxxxxxxwwwvwwwwwwwwxxxxxxeeeddccbaaaaa----aaaaaabcccccdeffhijlnoqrsuvwxyzzyxvusrqpomkjihhfgijlmoqstuvwxyyyyxwvtssrqomljihgeddccbaaaaaaaaaaaaaabbbbbcccdee
(PID.TID 0000.0001)     12 vvvvvvvwwwwvvvvvwwwwvvvvvvvvvvvwwwwwwxwwwwwwwwvvvvuvvvvvvvwwwwwwfeeddccbbaaaaa---aaaaabbcccccdefgiklmnoqrsuvwxyzzyxvtsrqponljiihegijlmoqstvwxxyzzyxwvttssqomljhhgeddccbaaaaaaaaaaaabbbbbccccddee
(PID.TID 0000.0001)     11 uuuuuuuvvvvuuuuuuvvvuuuuutttuuuuvvvvvwwvvvvvvvuuuuuttuttuuuvvwvvfefeddccbbaaaaa-aaaaaabbcccccdfghjlmnoprstuvwxyzzyxvtsrrponlkjiiefhjlnoqsuvwxyyzzyxwvuttsqomkjhggeddcbbaaaaaaaaaaabbbbccccccddef
(PID.TID 0000.0001)     10 tsssssstttuttttttuuutttttssssstttuuuuuvvuuuutttttttssssssttuuvuugggfedcccbbaaaaaaaaaabbbcddddefhikmnooqrstuvwxyzzywvtssrqpnlkkjjfghjmnpqsuvwxyzzzyxwvvutsqomkihhgeddcbbaaaaaabbabbbbbcccccccdefg
(PID.TID 0000.0001)      9 rrqqqqqrssssssssstttsssrrrrrrrrsssstttuuuttttsssssrrqqrqrrssttuthhgfeddccccbbaaaaabbbbbccdddefghikmnopqrtuuvwxyzzywvttsrqpomkkkjghikmopqsuvwxyzzzyxxwvutrqolkjihfeddccbbbbbbbbbbbbbbcccccdddefgh
(PID.TID 0000.0001)      8 qppooooopqrrrrrrrssrrrqqqqqqqqqqrrrrsssttsssssrrqqpppppppqqrssttihgfeedddccccbbbaaabbbbbcdddfghijkmnpqrstuvwxxyzzyxvutssrqomlllkiijlnopqstvwyyzzzzyxwvutrqolkjigfeedccccbbcccccbbbbcccccdeeefghi
(PID.TID 0000.0001)      7 poonnnmmmnopqqpqqrqqqqppqqpppppppqqqqqrrsrrrrqpppponnnoooopqqrssihggfeedddcccccbbbbbbbbbcddefhijklmnpqsstuvwxyzzzyxvuttsrqpnmmlkiklmnpqrstvxyzz+zzyxwvutrpnmlkjhgfeedccccccccccbbcccccddeeffgghi
(PID.TID 0000.0001)      6 oonmmmlllllnoopppppppooopppopppoooppoppqqqqpoooooonmlllnnnooppqrihhggfeeddccccccccccbccccddefgijlmmnprstuuvwxyzzzyxvuttsrqpommmljkmnopqrsuvxyzz++zyxxwvtrpomlljihffeeddddddddccccdddddeeefffgghj
(PID.TID 0000.0001)      5 nnmmllkkkkjlmnooooooonnnooonoooonnooonnoooonnmmnnnmlkkklmmnnnoopiihhggfeedddddddddddccccddeeeghjlmnnoqstuvwwxyzzzyxwvutsrrqpnmmlkkmnoqrstuvxyz+++zyxxwvtrponmlkjihgfffeeefffeddddddeeeeeefggggij
(PID.TID 0000.0001)      4 llllkkjjjjijklmmmlmmmmllmmnnnnnnnmnnnmmmmmlllllkllllkjjjllmmnmmniihhhhgffeeeeeeeeeeedddddeeefgijklnnoqstuvwxxyzzzyywvutsrrqpnmmlkklnpqrstuvxyz+++zyxxwusqpomllkjjihhhgffgggfeeedddeeeefffffgghij
(PID.TID 0000.0001)      3 lllkjjjjihhhjkjjjjjkkkkkkklmmmlllllllllllkkkkjjiijjjjiiiklllmmlmjjiiihhggfeffffeeefeeeeeeefghijjklmnoprtuvwxyyzzzyyxwvtssrqpnmmlkklnpqrstuwxyz+++zyxwvtsqpomllkkjjjihhghhhggfeeddeefefhggggghiij
(PID.TID 0000.0001)      2 lkkkjjijihgghiiiiiijjjjjjjkkkkkkkkkjjkkjjjjiihhggghhhhhijkkkklllkjjjiihhggffgggffffeefffgfghijjjkklmnprtuvwxyzzzzyyxwvutssrpnmmkkklnoqrssuvxyz+++zyxwutsqponmllkkjjjihhhiihhgfeeeeffghihhhhiijjk
(PID.TID 0000.0001)      1 kkjjiiiiihgfghhhhgghhhhiiiijjjjjjjiihiiiihhgggfffffggghhijkjjkkkkkkjjiihhgfgghihgggfffgggggijjjjkklmnoqsuvwxyzzzzyyxwvutssrpnmlkkllmopqrstuwyzz++zyxwutsrqpnmllkkkkkjiiijjihhgfffffghiiijjjkkkkk
(PID.TID 0000.0001) // =======================================================
(PID.TID 0000.0001) // END OF FIELD                                          =
(PID.TID 0000.0001) // =======================================================
(PID.TID 0000.0001) 
(PID.TID 0000.0001)  MDSREADFIELD: opening global file: RH.input.20Lev
(PID.TID 0000.0001) // =======================================================
(PID.TID 0000.0001) // Field Initial Salinity at iteration          1
(PID.TID 0000.0001) // CMIN =          6.688321003390099E-04
(PID.TID 0000.0001) // CMAX =          3.009632860529917E-02
(PID.TID 0000.0001) // CINT =          1.089907277961487E-03
(PID.TID 0000.0001) // SYMBOLS (CMIN->CMAX): -abcdefghijklmnopqrstuvwxyz+
(PID.TID 0000.0001) //                  0.0: .
(PID.TID 0000.0001) // RANGE I (Lo:Hi:Step):(   1: 192:   1)
(PID.TID 0000.0001) // RANGE J (Lo:Hi:Step):(  32:   1:  -1)
(PID.TID 0000.0001) // RANGE K (Lo:Hi:Step):(   1:   1:   1)
(PID.TID 0000.0001) // =======================================================
(PID.TID 0000.0001) K =   1
(PID.TID 0000.0001)                I=10      I=20      I=30      I=40      I=50      I=60      I=70      I=80      I=90      I=100     I=110     I=120     I=130     I=140     I=150     I=160     I=170     I=180     I=190
(PID.TID 0000.0001) |--J--|123456789|123456789|123456789|123456789|123456789|123456789|123456789|123456789|123456789|123456789|123456789|123456789|123456789|123456789|123456789|123456789|123456789|123456789|123456789|12
(PID.TID 0000.0001)     32 eeeeeeeedddddddddcccccdddddddccdddddcccbbbbcccccbbbbbbbbbccdddeeddddddddddccccccccbbbbccccddeeeeffffghijklnqtwxyxwuspnmlkjihfffeeefffghjjkmortwxxwvtrpnmkhgffffeeedddddddcccccccccccccdddddddddd
(PID.TID 0000.0001)     31 eeeeeeeeeedddeeddcccccdddeeeddccddddcccccbddcccbbbbbbbbcbcdeeeeedddddddcccccccccccbbbcccccddedeefffggghjklnpsvwxxwurpnmlkjihgfffeeffgghijkloqtwxyxvsqpnlkjhgfffeedddddddcccccccccccccccccccddddd
(PID.TID 0000.0001)     30 fffeeeeeeeeeeefedddccdddeeeeeddccdddcccccceeecceeeddccccbcdeeeeeddddccccccbbbbcccbbbbbccccdddddeefgghhijkmnpsuwxxvtrpomlkjihggffeeffgghijkmnqtxyyxvtqnlkkkjhgffeedddddcccccccccccccccccccccccddd
(PID.TID 0000.0001)     29 fffffffffeefffeeeedccdeeeeefeedcccddcccddddgggfeeeeedccdcdeeffffdddcccbbbbbbbbcccbbbbbbccccdddddefghhiijkmoprtvwwvtrponmlkihhgffeefgghhijkmnqtxzyxvtqnlkjjjigfeeeddddccccbbbbbbbbbbbbcccccccccdd
(PID.TID 0000.0001)     28 gggggggfffggggfeedcccddddddffedccccddddddefeggfffffeeddddeffggggdddccbbbbbbbbbbbbbbbbbbcccccccddefghiijkkmoqstvwwvtrqonmlkjihggfeffghhiijkmorvyzywusqnlkjjihgfeddddcccccccbcbbbbbbbbbbcccccccccd
(PID.TID 0000.0001)     27 hhhhhhggghggfeedcccddddddddefeddccceeeddeffgfggggggfedfffgghhhhhdddcccbbbbbbbbbbbbbbbbbcccccccddefgghijklmoqsuvwvvtrqonmlkjihgfeefghhiijklmoswzzywusqnlkjihhgfdddddccccccbbbbbbbbbbbbbbccccccccd
(PID.TID 0000.0001)     26 iiihhhhiihgfedcccdddcddcccdeedeedcdffffdeffghgiiiiggfegghhiiijiiddddccbbbbbbbbbbbbbbbbbccccccccdefgghikllmoqsuwwvvtsqpnmlkjhgffeefghhijjkkmorw++ywuspnmlkihgfeddcccccccbbbbbbbbbbbbbbbbccccccccd
(PID.TID 0000.0001)     25 jjiiiiiiihfeedcccddddddccccddeeddcdefggggghhiijjjjhhgihhijkkkkjkedddccbbbbbbbbbbbbbbabbbbccccccdeffghijklmoqsuwwwvusqpnmljihgffeegghhiijklmorws+ywurqqlligigeddccccccbbbbbbbbbbbbbbbbbbbbbcccccd
(PID.TID 0000.0001)     24 jjjjjjjihgfeddcccddddeecccddeffedcdefghhiijjkllkkkiihkjjlmmmmllmddddccbbbbbbabaaabbaabbbbbccccccdeffghijklnqsuvwwvutrpnmkjhhgfffefghiiijklmorvwxwvtsoqjhgggeddccccccbbbbbbbbbbbbbbbbbbbbbbbccccd
(PID.TID 0000.0001)     23 lkkkkkjihgfedddddeffedddddefhiiffeefhiijjjklmmmmllnnmmlmnonnnnnodcccccbbbaaaaaaaaabaabbbbbbbccccdeefggijklnpruvwwvvtrpnlkjhhgfffefghhiijklnonqywwuutmkjgeggfeedcbcccbbbbbbbbaaa-aaaaaaabbbbccccd
(PID.TID 0000.0001)     22 mmmmllkjhgggfffffghgfefgggghiikkhgiijkklllnoonnnmmmnnoooppppppqqcccccbbbbaaaaaaaaabaaabbabbbccccddeffghiklnoqtvwwwvtrpnlkjhhgfeedefghhijjlmosrstwvuokkgeeeddeeddccbbbbbbbbbaaaaaaa--aaabbbbccccd
(PID.TID 0000.0001)     21 ooonnmlkjiijjjjjjkkjiijkkkklmmklmlklmnnnoopqqqppponooprrrrqqqrssdcccbbbbbaaaaaaaaaaaaabbbbbbbcccddeefghiklnoqsuwwwvtrpnmkjhhgfeddeefghhijkmoptyutsqnjggffffeeeeedccccbbbbbaaaaaaaaa---aabbbbcccc
(PID.TID 0000.0001)     20 rrrqpoonlllnoonnnoppnmmooooqqqompoppppqqqrstssssrqqqqqrsssssstttdccbbbbbba-aaaaaaaaaaabbbbbbccccddddefgiklnoqsuvwwvtrpnmkihgfeddddeeghhiikloqstwzrskihhggfffeeddddccbbbbbaaaaaaaaaaaaaaabbbbbccc
(PID.TID 0000.0001)     19 ttttsrqqppppssrqqrsutsrssrstssqtrrrrsssstuuuuutttssttttuuuuuuuuudcbbbbbbbaaaaaaaaaaaaababbbccccccdddeefhjlnoqruvwwvtromkjhgfedddddeffggijkmorsssspnkjjihhgggfeeddccbbbbbaaaaaaaaaaaaaaaaabbbbbcc
(PID.TID 0000.0001)     18 vvvuutttttttuutttstwwvvvvwxxtswutttuuuuvvvvvuuutttvwvvvvxxwvvvvvcccbbbbbbaaaaaaaaaaaaaabbbbccccccdddeefhjlmoprtvwwvtqnkjigfeddcccddeeghijlnppstsqpmlkjiihhhgfeeddccbbbbbbaaaaaaaaaaaa-aaabbbbbcc
(PID.TID 0000.0001)     17 wxxwwvvvvvvvvvvvvuvxyyxxy+uuutwvvuvvwwwwwvvuuuuuuuuxxwvy+ywvvvvvdccbbbbbbbbaaaaaaaaaaaabbbbbccccccddeefhjlmopruvvvusomkjhgfeddccccddeghiklonqstsrpnllkjiihhgfeeddcbbbbbbaaaaaaaaaaaaaa-aabbbbbcc
(PID.TID 0000.0001)     16 wxxxxwwwvvvvuuuuuuuxyyyyzvvvvuwwvvwwwxwwvvuuuuuuuvuvxwvxyxwvvuvwdccbbbbbbbbaaaaaaaaaaaaaaabbbcccccddefghjlmopruvvvtromkihgfeddcccccddegijmoorstsrqomlkjiihhgfeddcccbbbbbaaaaaaa-aaaaaaaaabbbbbcc
(PID.TID 0000.0001)     15 wxwwwwwwvvuttsrrrrstwxxxxtttttwvvvvvwwwvuuuttttttuuuuvvvvvvvuuutcccbbbbbbbbaaaaaaaaaaaaaaabbbbcccdddefgijlmoprtvvvtqomkihgfedddccccddegikmlorsttsronlkjjiihgfeddcccbbbbbaaaaaaaa--aaaa-aabbbbbbc
(PID.TID 0000.0001)     14 vwwwvuvvutsrqpooopppsvvvvqqqrxvtttuuuvuttttttsssrrsstsssstttttttbccbbbbbaabaaaaaaaaaaaaababbbbbccdddfghiklnoprtvvusqnljihgfeedddcccdeefikjlorsttsrpnmkjjjihgfedddccbbbbbaaaaaaaa-aaaaa-aabbbbbbc
(PID.TID 0000.0001)     13 tuuusssssrqponmmmmmmoooooooooussrsssttsssssssrrqqpqqqqpppqrrrrrrbccbbbbaaabaaaaaaaaaaaaaabbbbbcccddefghiklnoqrtvvuspnljihggeedddbbcceffhjkmprttttsqomlkkkihgfeddcccbbbbbaaaaaaaaaaaaaaaabbbbbbcc
(PID.TID 0000.0001)     12 rssqpppppponmmllkkjkommmmmmmsrqqqqqqrrrqqqqqqqppoooooonnnnopppppcccbbbbbbabbaaaaaaaaaaaabbbbbbcccdeffghjklnoqstvvurpmljihggfeeddbccddeghjknqstuutsqomllkkjhffeddccbbbbbbaaaaaaaaaaaaaaaabbbbbccc
(PID.TID 0000.0001)     11 pppnnnnnnnnmlllkjjihkkkkkkkkponnnppoppppooooonnnnmmmllllllllmmmmccccbbbbbbbbaaaaaaaaaabbbbbbbbccdefgghijlmnoqsuvvuromljjhhgfeeedbbcdefgjiknqsuuuutrpnmmlljhfeeddcccbbbbbbaaaaaaaaaaaaaabbbbbbccc
(PID.TID 0000.0001)     10 nnmlkklmmmmlkkkjjjiggiimliinmlklnonnnnoonnmmmllllllkkkjjjijjklkkcdccbbbbbbbaaaaaaaaaabbbabbbbccddefgghiklmnprsuvvuromlkjihgfeeeecccdehghiknqtuvvutrponnmkihfedddcccbbbbbbbaaaaaaaaaaaaabbbbbbccc
(PID.TID 0000.0001)      9 lkjiiijjkkkkkjjjjiigfgggjhhkkiijmmlllmmnmmlllkkkkkjjiiihhhghiiiiccccbbbbbbbbbaaaaaaaaaabbbbbbccddefghijklnoprsuvvuromlkjihgfeeeeccceegghiknrtvvvvusqponmkihfeeddccbbbbbbbbbbbbbbabaabbbbbbbbccdd
(PID.TID 0000.0001)      8 jhhhhgghijjkjjiiiiihfgggggkjihhhkjjjkkllllkkkkjjjihhhhhgfgggghhhdcccbbbbbbbbbbaaaaaaaaabbbbbccddeefghjjklnoqrtuvvuronmkjjhgfeeeeddddefghiknruvwwwutrponmkihfeeddcccbbbbbbbbbbbbbbbbbbbbbcccccddd
(PID.TID 0000.0001)      7 hgggggffgghiiiiiiihgggfgggghhhhhiiiiijjkkkjjjihihhggffggfffffgggdccccbbbbbbbbbbbaaaabbbbbbbbccdeeffghjklmnoqstuvvurpnmlkjhhgfffeddeefghhjloruvxxwvtsqpnmkigffeddccccbbbbbbbbbbbbbbbbbbbbcccccddd
(PID.TID 0000.0001)      6 gggffffffffghhhhhhhhffhfggihhhhhhhhhhhhijjihhhghhggffeeffeeeefffdccdcbbbbbbbbbbbbbbbbbbbbbbbccddefgghjkmnoprstvvvuspnmlkiihgffffdeefghiijlosuwxyxvusqpomkihgffeddccccccbbcccbbbbbbbccccccccccdde
(PID.TID 0000.0001)      5 fffffeeeeeeegghhhghhgfefffgfggggggghggghhhgggggggggfeeeeeeeeeeeedccdcbbbbbbbbbbbbbbbbbbbbbbbcccdefgghjkmnoprstvwvutqomlkihgfefffeeffghijkmosuwyyxwusrqomjihgffeeddcccccccccccbbbbcccccccccccddde
(PID.TID 0000.0001)      4 fffeeeeeedddeffffffgffeeeefffgfffffggfffgffffffeffffeedeeeeeeeeeddddcbbbbbbbbbbcbcbbbbbbbbbbccdeefgghikmnpqrtuvvvvxspnljihgfeeeeeefghiijlmpsvwyyywutrpnljihgfeeeedddddcccccccccbbcccccccccccddde
(PID.TID 0000.0001)      3 eeeeedddddddeeeeeeeeffeeeefffffffffffffffeeeeeeddeeeedddeeeeeeeedddcbbbbbbbbbccccccbbbbbbbbbcddeeefggiklnprstuvvvyrspnkihgfeeeeeeeeghijjlnpsuwyzyxvtrpmljihgffeeeeedddddddddccccbcccccddddcddddd
(PID.TID 0000.0001)      2 eeeeedddddccdddddddeeeeeeeeeeeeeeeeeeeeeeeeeddddcdddddddeeeeeeeedddcbbbbbbbbccccbbbbbbbbbbccdddeeeffghjlnoqstuvvvysrpmkigffeeeeeeeeghiijkmpsuwyzyxvsqomkjihgfffeeeeedddddedddccccccccdddddddddde
(PID.TID 0000.0001)      1 eeeeddeeddcccddddcdddddddddeeeeddddddddedddddcccccccccdddeeeeeeddddcbbbbbbbbccdcbbbbbbbbbbbdddeeeeefghikmoqstuvvvvtrpnjihgfeeeeeeeffghijkloruwyyywuspnmljihgfffeeeeeeddeeeeddccccccdddeeeeeeeeed
(PID.TID 0000.0001) // =======================================================
(PID.TID 0000.0001) // END OF FIELD                                          =
(PID.TID 0000.0001) // =======================================================
(PID.TID 0000.0001) 
(PID.TID 0000.0001) Start initial hydrostatic pressure computation
(PID.TID 0000.0001) Pressure is predetermined for buoyancyRelation ATMOSPHERIC
(PID.TID 0000.0001) 
(PID.TID 0000.0001)  write diagnostics summary to file ioUnit:      6
Iter.Nb:         0 ; Time(s):  0.0000000000000E+00
------------------------------------------------------------------------
2D/3D diagnostics: Number of lists:     3
------------------------------------------------------------------------
listId=   1 ; file name: SHfields
 nFlds, nActive,       freq     &   phase        , nLev                 
  27  |  27  |         0.060000         0.000000 |   1
 levels:   1
 diag#| name   | ipt  | iMate| kLev| count | mate.C|                    
  201 |RADSWT  |    1 |    0 |   1 |     0 |
  224 |OSR     |    2 |    0 |   1 |     0 |
  190 |OLR     |    3 |    0 |   1 |     0 |
  363 |PLALBEDO|    4 |    0 |   1 |     0 |
  254 |CLDFRC  |    5 |    0 |   1 |     0 |
  174 |PREACC  |    6 |    0 |   1 |     0 |
  175 |PRECON  |    7 |    0 |   1 |     0 |
  205 |EVAP    |    8 |    0 |   1 |     0 |
  158 |RADSWG  |    9 |    0 |   1 |     0 |
  334 |ALBNIRDF|   10 |    0 |   1 |     0 |
  332 |ALBVISDF|   11 |    0 |   1 |     0 |
  199 |LWGDOWN |   12 |    0 |   1 |     0 |
  189 |LWGUP   |   13 |    0 |   1 |     0 |
  153 |EFLUX   |   14 |    0 |   1 |     0 |
  152 |HFLUX   |   15 |    0 |   1 |     0 |
  258 |T2M     |   16 |    0 |   1 |     0 |
  259 |Q2M     |   17 |    0 |   1 |     0 |
  154 |UFLUX   |   18 |   19 |   1 |     0 |     0 |
  155 |VFLUX   |   19 |   18 |   1 |     0 |     0 |
  260 |U10M    |   20 |   21 |   1 |     0 |     0 |
  261 |V10M    |   21 |   20 |   1 |     0 |     0 |
  232 |PS      |   22 |    0 |   1 |     0 |
  225 |OSRCLR  |   23 |    0 |   1 |     0 |
  191 |OLRCLR  |   24 |    0 |   1 |     0 |
  235 |SWGCLR  |   25 |    0 |   1 |     0 |
  192 |LWGCLR  |   26 |    0 |   1 |     0 |
   78 |RSURF   |   27 |    0 |   1 |     0 |
------------------------------------------------------------------------
listId=   2 ; file name: MLfields
 nFlds, nActive,       freq     &   phase        , nLev                 
   8  |   8  |        -0.060000         0.030000 |  20
 levels:   1   2   3   4   5   6   7   8   9  10  11  12  13  14  15  16  17  18  19  20
 diag#| name   | ipt  | iMate| kLev| count | mate.C|                    
   29 |UVEL    |   28 |   48 |  20 |     0 |     0 |
   30 |VVEL    |   48 |   28 |  20 |     0 |     0 |
   63 |PHIHYD  |   68 |    0 |  20 |     0 |
   31 |WVEL    |   88 |    0 |  20 |     0 |
   27 |SALT    |  108 |    0 |  20 |     0 |
   28 |RELHUM  |  128 |    0 |  20 |     0 |
   77 |PRESSURE|  148 |    0 |  20 |     0 |
   26 |THETA   |  168 |    0 |  20 |     0 |
------------------------------------------------------------------------
listId=   3 ; file name: MFfields
 nFlds, nActive,       freq     &   phase        , nLev                 
  17  |  17  |        -0.060000         0.030000 |  20
 levels:   1   2   3   4   5   6   7   8   9  10  11  12  13  14  15  16  17  18  19  20
 diag#| name   | ipt  | iMate| kLev| count | mate.C|                    
   34 |UVELSQ  |  188 |  208 |  20 |     0 |     0 |
   35 |VVELSQ  |  208 |  188 |  20 |     0 |     0 |
   32 |THETASQ |  228 |    0 |  20 |     0 |
   36 |WVELSQ  |  248 |    0 |  20 |     0 |
   64 |PHIHYDSQ|  268 |    0 |  20 |     0 |
   33 |SALTSQ  |  288 |    0 |  20 |     0 |
   37 |UV_VEL_C|  308 |  308 |  20 |     0 |     0 |
   39 |WU_VEL  |  328 |    0 |  20 |     0 |
   40 |WV_VEL  |  348 |    0 |  20 |     0 |
   51 |VVELTH  |  368 |  468 |  20 |     0 |     0 |
   52 |WVELTH  |  388 |    0 |  20 |     0 |
   54 |VVELSLT |  408 |  448 |  20 |     0 |     0 |
   55 |WVELSLT |  428 |    0 |  20 |     0 |
   53 |UVELSLT |  448 |  408 |  20 |     0 |     0 |
   50 |UVELTH  |  468 |  368 |  20 |     0 |     0 |
   56 |UVELPHI |  488 |  508 |  20 |     0 |     0 |
   57 |VVELPHI |  508 |  488 |  20 |     0 |     0 |
------------------------------------------------------------------------
Global & Regional Statistics diagnostics: Number of lists:     1
------------------------------------------------------------------------
listId=   1 ; file name: GTfields
 nFlds, nActive,       freq     &   phase        |                      
  26  |  26  |         1.000000         0.000000 |
 Regions:   0
 diag#| name   | ipt  | iMate|    Volume   |   mate-Vol. |              
  201 |RADSWT  |    1 |    0 | 0.00000E+00 |
  224 |OSR     |    2 |    0 | 0.00000E+00 |
  190 |OLR     |    3 |    0 | 0.00000E+00 |
  363 |PLALBEDO|    4 |    0 | 0.00000E+00 |
  254 |CLDFRC  |    5 |    0 | 0.00000E+00 |
  174 |PREACC  |    6 |    0 | 0.00000E+00 |
  175 |PRECON  |    7 |    0 | 0.00000E+00 |
  205 |EVAP    |    8 |    0 | 0.00000E+00 |
  158 |RADSWG  |    9 |    0 | 0.00000E+00 |
  334 |ALBNIRDF|   10 |    0 | 0.00000E+00 |
  332 |ALBVISDF|   11 |    0 | 0.00000E+00 |
  199 |LWGDOWN |   12 |    0 | 0.00000E+00 |
  189 |LWGUP   |   13 |    0 | 0.00000E+00 |
  153 |EFLUX   |   14 |    0 | 0.00000E+00 |
  152 |HFLUX   |   15 |    0 | 0.00000E+00 |
  258 |T2M     |   16 |    0 | 0.00000E+00 |
  259 |Q2M     |   17 |    0 | 0.00000E+00 |
  154 |UFLUX   |   18 |    0 | 0.00000E+00 |
  155 |VFLUX   |   19 |    0 | 0.00000E+00 |
  260 |U10M    |   20 |    0 | 0.00000E+00 |
  261 |V10M    |   21 |    0 | 0.00000E+00 |
  232 |PS      |   22 |    0 | 0.00000E+00 |
  225 |OSRCLR  |   23 |    0 | 0.00000E+00 |
  191 |OLRCLR  |   24 |    0 | 0.00000E+00 |
  235 |SWGCLR  |   25 |    0 | 0.00000E+00 |
  192 |LWGCLR  |   26 |    0 | 0.00000E+00 |
------------------------------------------------------------------------
  In fizhi_init_vars: Beginning of New Experiment 
  Cold Start: Zero out Turb second moments 
  Initialize fizhi arrays that will be on pickup 
  Cold Start: Zero out Turb second moments 
  Initialize fizhi arrays that will be on pickup 
  Cold Start: Zero out Turb second moments 
  Initialize fizhi arrays that will be on pickup 
  Cold Start: Zero out Turb second moments 
  Initialize fizhi arrays that will be on pickup 
  Cold Start: Zero out Turb second moments 
  Initialize fizhi arrays that will be on pickup 
  Cold Start: Zero out Turb second moments 
  Initialize fizhi arrays that will be on pickup 
(PID.TID 0000.0001) // =======================================================
(PID.TID 0000.0001) // Model current state
(PID.TID 0000.0001) // =======================================================
(PID.TID 0000.0001) 
(PID.TID 0000.0001) // =======================================================
(PID.TID 0000.0001) // Begin MONITOR dynamic field statistics
(PID.TID 0000.0001) // =======================================================
(PID.TID 0000.0001) %MON time_tsnumber                =                     0
(PID.TID 0000.0001) %MON time_secondsf                =   0.0000000000000E+00
(PID.TID 0000.0001) %MON dynstat_eta_max              =   0.0000000000000E+00
(PID.TID 0000.0001) %MON dynstat_eta_min              =   0.0000000000000E+00
(PID.TID 0000.0001) %MON dynstat_eta_mean             =   0.0000000000000E+00
(PID.TID 0000.0001) %MON dynstat_eta_sd               =   0.0000000000000E+00
(PID.TID 0000.0001) %MON dynstat_eta_del2             =   0.0000000000000E+00
(PID.TID 0000.0001) %MON dynstat_uvel_max             =   4.1689124714060E+01
(PID.TID 0000.0001) %MON dynstat_uvel_min             =  -3.6855012364959E+01
(PID.TID 0000.0001) %MON dynstat_uvel_mean            =   1.7037315637278E+00
(PID.TID 0000.0001) %MON dynstat_uvel_sd              =   7.8762494662000E+00
(PID.TID 0000.0001) %MON dynstat_uvel_del2            =   3.1526598440943E-01
(PID.TID 0000.0001) %MON dynstat_vvel_max             =   3.8279724931338E+01
(PID.TID 0000.0001) %MON dynstat_vvel_min             =  -3.3449826571863E+01
(PID.TID 0000.0001) %MON dynstat_vvel_mean            =   1.6728858593484E+00
(PID.TID 0000.0001) %MON dynstat_vvel_sd              =   7.8521609366093E+00
(PID.TID 0000.0001) %MON dynstat_vvel_del2            =   3.1834566062266E-01
(PID.TID 0000.0001) %MON dynstat_wvel_max             =   2.0651102168184E-01
(PID.TID 0000.0001) %MON dynstat_wvel_min             =  -1.4850774831547E-01
(PID.TID 0000.0001) %MON dynstat_wvel_mean            =   1.5920826516130E-18
(PID.TID 0000.0001) %MON dynstat_wvel_sd              =   2.6334297146946E-02
(PID.TID 0000.0001) %MON dynstat_wvel_del2            =   6.9006579166993E-03
(PID.TID 0000.0001) %MON dynstat_theta_max            =   4.8585539276299E+02
(PID.TID 0000.0001) %MON dynstat_theta_min            =   2.6911078580507E+02
(PID.TID 0000.0001) %MON dynstat_theta_mean           =   3.2503096578545E+02
(PID.TID 0000.0001) %MON dynstat_theta_sd             =   4.7714841923137E+01
(PID.TID 0000.0001) %MON dynstat_theta_del2           =   9.9343548146078E-02
(PID.TID 0000.0001) %MON dynstat_salt_max             =   3.0096328605299E-02
(PID.TID 0000.0001) %MON dynstat_salt_min             =   0.0000000000000E+00
(PID.TID 0000.0001) %MON dynstat_salt_mean            =   2.6642499910156E-03
(PID.TID 0000.0001) %MON dynstat_salt_sd              =   4.4400329333276E-03
(PID.TID 0000.0001) %MON dynstat_salt_del2            =   3.6805312667659E-05
(PID.TID 0000.0001) %MON advcfl_uvel_max              =   3.1499896007934E-02
(PID.TID 0000.0001) %MON advcfl_vvel_max              =   3.5319712134133E-02
(PID.TID 0000.0001) %MON advcfl_wvel_max              =   4.9033087854809E-03
(PID.TID 0000.0001) %MON advcfl_W_hf_max              =   4.9033087854809E-03
(PID.TID 0000.0001) %MON pe_b_mean                    =   0.0000000000000E+00
(PID.TID 0000.0001) %MON ke_max                       =   8.6575910092947E+02
(PID.TID 0000.0001) %MON ke_mean                      =   6.4696492683937E+01
(PID.TID 0000.0001) %MON ke_vol                       =   5.1537074390047E+19
(PID.TID 0000.0001) %MON vort_r_min                   =  -4.8334073392882E-05
(PID.TID 0000.0001) %MON vort_r_max                   =   5.4390382265555E-05
(PID.TID 0000.0001) %MON vort_a_mean                  =   1.3580915090222E-19
(PID.TID 0000.0001) %MON vort_a_sd                    =   8.5822836919601E-05
(PID.TID 0000.0001) %MON vort_p_mean                  =   1.3580915090222E-19
(PID.TID 0000.0001) %MON vort_p_sd                    =   8.5822836919601E-05
(PID.TID 0000.0001) %MON surfExpan_theta_mean         =   3.8975999242293E-17
(PID.TID 0000.0001) %MON surfExpan_salt_mean          =   1.5437467709100E-21
(PID.TID 0000.0001) %MON surfExpan_Heat_mean          =   3.9724034373426E-15
(PID.TID 0000.0001) %MON En_Budget_T2PE_mean          =  -2.2904633417964E-01
(PID.TID 0000.0001) // =======================================================
(PID.TID 0000.0001) // End MONITOR dynamic field statistics
(PID.TID 0000.0001) // =======================================================

 Low-Level Clouds are Grouped between levels:           28 and           16
 Mid-Level Clouds are Grouped between levels:           15 and           10


 Warning!
 Turbulent Kinetic Energy has not been initialized.
 Cold-Start will use Level 2.0 Turbulence.


 Top Level Allowed for Convection :            2
           Highest Sub-Cloud Level:           20
           Lowest  Sub-Cloud Level:           24
     Total Number of Random Clouds:           13

 Creating Rand Numb Array in RNDCLOUD, iseed=           0
 IRAS:            1  IRAS0:            0 indx:            0
 Current Date     20040321 Current Time          200
 cg2d: Sum(rhs),rhsMax =   1.81898940354586E-12  3.41494610617228E+02
(PID.TID 0000.0001)                    cg2d_init_res =    4.81516248542290E+03
(PID.TID 0000.0001)                       cg2d_iters =     6
(PID.TID 0000.0001)                         cg2d_res =    9.50688763487751E-11
(PID.TID 0000.0001) // =======================================================
(PID.TID 0000.0001) // Begin MONITOR dynamic field statistics
(PID.TID 0000.0001) // =======================================================
(PID.TID 0000.0001) %MON time_tsnumber                =                     1
(PID.TID 0000.0001) %MON time_secondsf                =   1.2000000000000E+02
(PID.TID 0000.0001) %MON dynstat_eta_max              =   1.1335694243200E+01
(PID.TID 0000.0001) %MON dynstat_eta_min              =  -6.8881281664859E+00
(PID.TID 0000.0001) %MON dynstat_eta_mean             =   1.8627367023872E-17
(PID.TID 0000.0001) %MON dynstat_eta_sd               =   1.0803202511142E+00
(PID.TID 0000.0001) %MON dynstat_eta_del2             =   3.1363632492624E-01
(PID.TID 0000.0001) %MON dynstat_uvel_max             =   4.1671168667721E+01
(PID.TID 0000.0001) %MON dynstat_uvel_min             =  -3.6890544564903E+01
(PID.TID 0000.0001) %MON dynstat_uvel_mean            =   1.7031695895167E+00
(PID.TID 0000.0001) %MON dynstat_uvel_sd              =   7.8744786445206E+00
(PID.TID 0000.0001) %MON dynstat_uvel_del2            =   3.1488382225045E-01
(PID.TID 0000.0001) %MON dynstat_vvel_max             =   3.8266982510448E+01
(PID.TID 0000.0001) %MON dynstat_vvel_min             =  -3.3384654650142E+01
(PID.TID 0000.0001) %MON dynstat_vvel_mean            =   1.6734022725030E+00
(PID.TID 0000.0001) %MON dynstat_vvel_sd              =   7.8532798064041E+00
(PID.TID 0000.0001) %MON dynstat_vvel_del2            =   3.1812171572294E-01
(PID.TID 0000.0001) %MON dynstat_wvel_max             =   2.0525897446055E-01
(PID.TID 0000.0001) %MON dynstat_wvel_min             =  -1.6045751110391E-01
(PID.TID 0000.0001) %MON dynstat_wvel_mean            =  -3.1841653032260E-19
(PID.TID 0000.0001) %MON dynstat_wvel_sd              =   2.6352799612981E-02
(PID.TID 0000.0001) %MON dynstat_wvel_del2            =   6.8483560853359E-03
(PID.TID 0000.0001) %MON dynstat_theta_max            =   4.8595288108109E+02
(PID.TID 0000.0001) %MON dynstat_theta_min            =   2.6911257170260E+02
(PID.TID 0000.0001) %MON dynstat_theta_mean           =   3.2504133275521E+02
(PID.TID 0000.0001) %MON dynstat_theta_sd             =   4.7751860111785E+01
(PID.TID 0000.0001) %MON dynstat_theta_del2           =   9.9407015456057E-02
(PID.TID 0000.0001) %MON dynstat_salt_max             =   2.9557606786642E-02
(PID.TID 0000.0001) %MON dynstat_salt_min             =  -1.1675966304527E-10
(PID.TID 0000.0001) %MON dynstat_salt_mean            =   2.6643102880345E-03
(PID.TID 0000.0001) %MON dynstat_salt_sd              =   4.4270063414096E-03
(PID.TID 0000.0001) %MON dynstat_salt_del2            =   3.8284210040180E-05
(PID.TID 0000.0001) %MON advcfl_uvel_max              =   3.1565067054170E-02
(PID.TID 0000.0001) %MON advcfl_vvel_max              =   3.5318811881498E-02
(PID.TID 0000.0001) %MON advcfl_wvel_max              =   4.8735807153276E-03
(PID.TID 0000.0001) %MON advcfl_W_hf_max              =   4.8735807153276E-03
(PID.TID 0000.0001) %MON pe_b_mean                    =   4.7001227217849E-06
(PID.TID 0000.0001) %MON ke_max                       =   8.6477641190713E+02
(PID.TID 0000.0001) %MON ke_mean                      =   6.4691239728477E+01
(PID.TID 0000.0001) %MON ke_vol                       =   5.1537074390047E+19
(PID.TID 0000.0001) %MON vort_r_min                   =  -4.8331686059243E-05
(PID.TID 0000.0001) %MON vort_r_max                   =   5.4416633322161E-05
(PID.TID 0000.0001) %MON vort_a_mean                  =   9.4581372949762E-20
(PID.TID 0000.0001) %MON vort_a_sd                    =   8.5822701431287E-05
(PID.TID 0000.0001) %MON vort_p_mean                  =   9.4581372949762E-20
(PID.TID 0000.0001) %MON vort_p_sd                    =   8.5822701431287E-05
(PID.TID 0000.0001) %MON surfExpan_theta_mean         =  -1.5115759453665E-03
(PID.TID 0000.0001) %MON surfExpan_salt_mean          =  -1.3487043879836E-06
(PID.TID 0000.0001) %MON surfExpan_Heat_mean          =  -9.5979169470305E-02
(PID.TID 0000.0001) %MON En_Budget_T2PE_mean          =  -2.0955287260950E-01
(PID.TID 0000.0001) // =======================================================
(PID.TID 0000.0001) // End MONITOR dynamic field statistics
(PID.TID 0000.0001) // =======================================================
 Current Date     20040321 Current Time          400
 cg2d: Sum(rhs),rhsMax =   3.63797880709171E-11  1.00664134745399E+03
(PID.TID 0000.0001)                    cg2d_init_res =    9.48025371789033E+03
(PID.TID 0000.0001)                       cg2d_iters =     6
(PID.TID 0000.0001)                         cg2d_res =    1.81266835181428E-10
(PID.TID 0000.0001) // =======================================================
(PID.TID 0000.0001) // Begin MONITOR dynamic field statistics
(PID.TID 0000.0001) // =======================================================
(PID.TID 0000.0001) %MON time_tsnumber                =                     2
(PID.TID 0000.0001) %MON time_secondsf                =   2.4000000000000E+02
(PID.TID 0000.0001) %MON dynstat_eta_max              =   2.9927537863116E+01
(PID.TID 0000.0001) %MON dynstat_eta_min              =  -2.0289960990703E+01
(PID.TID 0000.0001) %MON dynstat_eta_mean             =  -3.4771085111228E-16
(PID.TID 0000.0001) %MON dynstat_eta_sd               =   3.1881609004017E+00
(PID.TID 0000.0001) %MON dynstat_eta_del2             =   8.7937362488395E-01
(PID.TID 0000.0001) %MON dynstat_uvel_max             =   4.1651694936467E+01
(PID.TID 0000.0001) %MON dynstat_uvel_min             =  -3.6923976976683E+01
(PID.TID 0000.0001) %MON dynstat_uvel_mean            =   1.7026170898015E+00
(PID.TID 0000.0001) %MON dynstat_uvel_sd              =   7.8725462465863E+00
(PID.TID 0000.0001) %MON dynstat_uvel_del2            =   3.1463289185673E-01
(PID.TID 0000.0001) %MON dynstat_vvel_max             =   3.8252464727472E+01
(PID.TID 0000.0001) %MON dynstat_vvel_min             =  -3.3316415908065E+01
(PID.TID 0000.0001) %MON dynstat_vvel_mean            =   1.6739288443319E+00
(PID.TID 0000.0001) %MON dynstat_vvel_sd              =   7.8541694335320E+00
(PID.TID 0000.0001) %MON dynstat_vvel_del2            =   3.1801738131333E-01
(PID.TID 0000.0001) %MON dynstat_wvel_max             =   2.0394114169923E-01
(PID.TID 0000.0001) %MON dynstat_wvel_min             =  -1.7238691059497E-01
(PID.TID 0000.0001) %MON dynstat_wvel_mean            =   6.3683306064520E-19
(PID.TID 0000.0001) %MON dynstat_wvel_sd              =   2.6378142761445E-02
(PID.TID 0000.0001) %MON dynstat_wvel_del2            =   6.8213260297621E-03
(PID.TID 0000.0001) %MON dynstat_theta_max            =   4.8605003655548E+02
(PID.TID 0000.0001) %MON dynstat_theta_min            =   2.6911436187942E+02
(PID.TID 0000.0001) %MON dynstat_theta_mean           =   3.2505169309673E+02
(PID.TID 0000.0001) %MON dynstat_theta_sd             =   4.7788940038590E+01
(PID.TID 0000.0001) %MON dynstat_theta_del2           =   9.9564457380859E-02
(PID.TID 0000.0001) %MON dynstat_salt_max             =   2.9371440617284E-02
(PID.TID 0000.0001) %MON dynstat_salt_min             =  -3.9341350486265E-10
(PID.TID 0000.0001) %MON dynstat_salt_mean            =   2.6643716742201E-03
(PID.TID 0000.0001) %MON dynstat_salt_sd              =   4.4155532636670E-03
(PID.TID 0000.0001) %MON dynstat_salt_del2            =   4.1648179758423E-05
(PID.TID 0000.0001) %MON advcfl_uvel_max              =   3.1611110616478E-02
(PID.TID 0000.0001) %MON advcfl_vvel_max              =   3.5314169411300E-02
(PID.TID 0000.0001) %MON advcfl_wvel_max              =   4.8422906616358E-03
(PID.TID 0000.0001) %MON advcfl_W_hf_max              =   4.8422739618974E-03
(PID.TID 0000.0001) %MON pe_b_mean                    =   4.0934041525363E-05
(PID.TID 0000.0001) %MON ke_max                       =   8.6375268492019E+02
(PID.TID 0000.0001) %MON ke_mean                      =   6.4682952313637E+01
(PID.TID 0000.0001) %MON ke_vol                       =   5.1537074390046E+19
(PID.TID 0000.0001) %MON vort_r_min                   =  -4.8326840378426E-05
(PID.TID 0000.0001) %MON vort_r_max                   =   5.4441797744127E-05
(PID.TID 0000.0001) %MON vort_a_mean                  =   5.3353594997301E-20
(PID.TID 0000.0001) %MON vort_a_sd                    =   8.5822491597801E-05
(PID.TID 0000.0001) %MON vort_p_mean                  =   5.3353594757694E-20
(PID.TID 0000.0001) %MON vort_p_sd                    =   8.5822534514405E-05
(PID.TID 0000.0001) %MON surfExpan_theta_mean         =   4.3245899822377E-04
(PID.TID 0000.0001) %MON surfExpan_salt_mean          =  -2.7650334375030E-06
(PID.TID 0000.0001) %MON surfExpan_Heat_mean          =   1.5394598069573E-01
(PID.TID 0000.0001) %MON En_Budget_T2PE_mean          =  -1.9030017170897E-01
(PID.TID 0000.0001) // =======================================================
(PID.TID 0000.0001) // End MONITOR dynamic field statistics
(PID.TID 0000.0001) // =======================================================
 Current Date     20040321 Current Time          600
 cg2d: Sum(rhs),rhsMax =  -2.91038304567337E-11  1.97853787949639E+03
(PID.TID 0000.0001)                    cg2d_init_res =    1.41157795565210E+04
(PID.TID 0000.0001)                       cg2d_iters =     6
(PID.TID 0000.0001)                         cg2d_res =    2.63187905738366E-10
(PID.TID 0000.0001) // =======================================================
(PID.TID 0000.0001) // Begin MONITOR dynamic field statistics
(PID.TID 0000.0001) // =======================================================
(PID.TID 0000.0001) %MON time_tsnumber                =                     3
(PID.TID 0000.0001) %MON time_secondsf                =   3.6000000000000E+02
(PID.TID 0000.0001) %MON dynstat_eta_max              =   5.0335577339122E+01
(PID.TID 0000.0001) %MON dynstat_eta_min              =  -3.9870425558323E+01
(PID.TID 0000.0001) %MON dynstat_eta_mean             =   1.0431325533368E-15
(PID.TID 0000.0001) %MON dynstat_eta_sd               =   6.3300195867437E+00
(PID.TID 0000.0001) %MON dynstat_eta_del2             =   1.6589895155821E+00
(PID.TID 0000.0001) %MON dynstat_uvel_max             =   4.1632029374789E+01
(PID.TID 0000.0001) %MON dynstat_uvel_min             =  -3.6956133281068E+01
(PID.TID 0000.0001) %MON dynstat_uvel_mean            =   1.7020798682872E+00
(PID.TID 0000.0001) %MON dynstat_uvel_sd              =   7.8705861515200E+00
(PID.TID 0000.0001) %MON dynstat_uvel_del2            =   3.1432946392232E-01
(PID.TID 0000.0001) %MON dynstat_vvel_max             =   3.8236951474065E+01
(PID.TID 0000.0001) %MON dynstat_vvel_min             =  -3.3246796859158E+01
(PID.TID 0000.0001) %MON dynstat_vvel_mean            =   1.6744700292352E+00
(PID.TID 0000.0001) %MON dynstat_vvel_sd              =   7.8549588539902E+00
(PID.TID 0000.0001) %MON dynstat_vvel_del2            =   3.1786224592143E-01
(PID.TID 0000.0001) %MON dynstat_wvel_max             =   2.0255232128378E-01
(PID.TID 0000.0001) %MON dynstat_wvel_min             =  -1.8471535754530E-01
(PID.TID 0000.0001) %MON dynstat_wvel_mean            =   4.7762479548390E-19
(PID.TID 0000.0001) %MON dynstat_wvel_sd              =   2.6404679628260E-02
(PID.TID 0000.0001) %MON dynstat_wvel_del2            =   6.8068913945949E-03
(PID.TID 0000.0001) %MON dynstat_theta_max            =   4.8614695352120E+02
(PID.TID 0000.0001) %MON dynstat_theta_min            =   2.6911608655781E+02
(PID.TID 0000.0001) %MON dynstat_theta_mean           =   3.2506204769982E+02
(PID.TID 0000.0001) %MON dynstat_theta_sd             =   4.7826047323563E+01
(PID.TID 0000.0001) %MON dynstat_theta_del2           =   9.9530044134536E-02
(PID.TID 0000.0001) %MON dynstat_salt_max             =   2.9229589553322E-02
(PID.TID 0000.0001) %MON dynstat_salt_min             =  -7.3683174165009E-10
(PID.TID 0000.0001) %MON dynstat_salt_mean            =   2.6644324523348E-03
(PID.TID 0000.0001) %MON dynstat_salt_sd              =   4.4052913263071E-03
(PID.TID 0000.0001) %MON dynstat_salt_del2            =   4.2702501766017E-05
(PID.TID 0000.0001) %MON advcfl_uvel_max              =   3.1638008888025E-02
(PID.TID 0000.0001) %MON advcfl_vvel_max              =   3.5304813920446E-02
(PID.TID 0000.0001) %MON advcfl_wvel_max              =   4.8093151076481E-03
(PID.TID 0000.0001) %MON advcfl_W_hf_max              =   4.8092574089261E-03
(PID.TID 0000.0001) %MON pe_b_mean                    =   1.6136683125810E-04
(PID.TID 0000.0001) %MON ke_max                       =   8.6273231650052E+02
(PID.TID 0000.0001) %MON ke_mean                      =   6.4673715365213E+01
(PID.TID 0000.0001) %MON ke_vol                       =   5.1537074390047E+19
(PID.TID 0000.0001) %MON vort_r_min                   =  -4.8320607094855E-05
(PID.TID 0000.0001) %MON vort_r_max                   =   5.4466470740088E-05
(PID.TID 0000.0001) %MON vort_a_mean                  =  -1.2610849726635E-19
(PID.TID 0000.0001) %MON vort_a_sd                    =   8.5822201420104E-05
(PID.TID 0000.0001) %MON vort_p_mean                  =  -1.2610849545661E-19
(PID.TID 0000.0001) %MON vort_p_sd                    =   8.5822360213250E-05
(PID.TID 0000.0001) %MON surfExpan_theta_mean         =   2.4344725621321E-03
(PID.TID 0000.0001) %MON surfExpan_salt_mean          =  -4.1585748252050E-06
(PID.TID 0000.0001) %MON surfExpan_Heat_mean          =   4.0790340069663E-01
(PID.TID 0000.0001) %MON En_Budget_T2PE_mean          =  -1.7146080076653E-01
(PID.TID 0000.0001) // =======================================================
(PID.TID 0000.0001) // End MONITOR dynamic field statistics
(PID.TID 0000.0001) // =======================================================
 Current Date     20040321 Current Time          800
 cg2d: Sum(rhs),rhsMax =   5.82076609134674E-11  3.23558987321851E+03
(PID.TID 0000.0001)                    cg2d_init_res =    1.85717588400342E+04
(PID.TID 0000.0001)                       cg2d_iters =     6
(PID.TID 0000.0001)                         cg2d_res =    3.37970025080477E-10
(PID.TID 0000.0001) // =======================================================
(PID.TID 0000.0001) // Begin MONITOR dynamic field statistics
(PID.TID 0000.0001) // =======================================================
(PID.TID 0000.0001) %MON time_tsnumber                =                     4
(PID.TID 0000.0001) %MON time_secondsf                =   4.8000000000000E+02
(PID.TID 0000.0001) %MON dynstat_eta_max              =   6.8667154212077E+01
(PID.TID 0000.0001) %MON dynstat_eta_min              =  -6.5200829908548E+01
(PID.TID 0000.0001) %MON dynstat_eta_mean             =   2.9803787238195E-16
(PID.TID 0000.0001) %MON dynstat_eta_sd               =   1.0465999382952E+01
(PID.TID 0000.0001) %MON dynstat_eta_del2             =   2.6001966346684E+00
(PID.TID 0000.0001) %MON dynstat_uvel_max             =   4.1612575268674E+01
(PID.TID 0000.0001) %MON dynstat_uvel_min             =  -3.6987039715424E+01
(PID.TID 0000.0001) %MON dynstat_uvel_mean            =   1.7015581129595E+00
(PID.TID 0000.0001) %MON dynstat_uvel_sd              =   7.8686203134650E+00
(PID.TID 0000.0001) %MON dynstat_uvel_del2            =   3.1408017075429E-01
(PID.TID 0000.0001) %MON dynstat_vvel_max             =   3.8220579645219E+01
(PID.TID 0000.0001) %MON dynstat_vvel_min             =  -3.3176070449616E+01
(PID.TID 0000.0001) %MON dynstat_vvel_mean            =   1.6750242627257E+00
(PID.TID 0000.0001) %MON dynstat_vvel_sd              =   7.8556787540435E+00
(PID.TID 0000.0001) %MON dynstat_vvel_del2            =   3.1774911800659E-01
(PID.TID 0000.0001) %MON dynstat_wvel_max             =   2.0108866951505E-01
(PID.TID 0000.0001) %MON dynstat_wvel_min             =  -1.9763486029399E-01
(PID.TID 0000.0001) %MON dynstat_wvel_mean            =  -6.6867471367746E-18
(PID.TID 0000.0001) %MON dynstat_wvel_sd              =   2.6437018984813E-02
(PID.TID 0000.0001) %MON dynstat_wvel_del2            =   6.8104959724241E-03
(PID.TID 0000.0001) %MON dynstat_theta_max            =   4.8624363442395E+02
(PID.TID 0000.0001) %MON dynstat_theta_min            =   2.6911778500514E+02
(PID.TID 0000.0001) %MON dynstat_theta_mean           =   3.2507240089388E+02
(PID.TID 0000.0001) %MON dynstat_theta_sd             =   4.7863203099975E+01
(PID.TID 0000.0001) %MON dynstat_theta_del2           =   9.9558426884967E-02
(PID.TID 0000.0001) %MON dynstat_salt_max             =   2.9088261483642E-02
(PID.TID 0000.0001) %MON dynstat_salt_min             =  -1.1256541494395E-09
(PID.TID 0000.0001) %MON dynstat_salt_mean            =   2.6644931767289E-03
(PID.TID 0000.0001) %MON dynstat_salt_sd              =   4.3955407198808E-03
(PID.TID 0000.0001) %MON dynstat_salt_del2            =   4.4268076035538E-05
(PID.TID 0000.0001) %MON advcfl_uvel_max              =   3.1649787120660E-02
(PID.TID 0000.0001) %MON advcfl_vvel_max              =   3.5290963497363E-02
(PID.TID 0000.0001) %MON advcfl_wvel_max              =   4.7745627902266E-03
(PID.TID 0000.0001) %MON advcfl_W_hf_max              =   4.7744364168388E-03
(PID.TID 0000.0001) %MON pe_b_mean                    =   4.4112896282174E-04
(PID.TID 0000.0001) %MON ke_max                       =   8.6172984035745E+02
(PID.TID 0000.0001) %MON ke_mean                      =   6.4663940315832E+01
(PID.TID 0000.0001) %MON ke_vol                       =   5.1537074390047E+19
(PID.TID 0000.0001) %MON vort_r_min                   =  -4.8313026226209E-05
(PID.TID 0000.0001) %MON vort_r_max                   =   5.4490657345545E-05
(PID.TID 0000.0001) %MON vort_a_mean                  =  -1.3338398749325E-19
(PID.TID 0000.0001) %MON vort_a_sd                    =   8.5821860288955E-05
(PID.TID 0000.0001) %MON vort_p_mean                  =  -1.3580914694021E-19
(PID.TID 0000.0001) %MON vort_p_sd                    =   8.5822207093715E-05
(PID.TID 0000.0001) %MON surfExpan_theta_mean         =   4.5047036748765E-03
(PID.TID 0000.0001) %MON surfExpan_salt_mean          =  -5.5235789242034E-06
(PID.TID 0000.0001) %MON surfExpan_Heat_mean          =   6.6674375752041E-01
(PID.TID 0000.0001) %MON En_Budget_T2PE_mean          =  -1.5293887479635E-01
(PID.TID 0000.0001) // =======================================================
(PID.TID 0000.0001) // End MONITOR dynamic field statistics
(PID.TID 0000.0001) // =======================================================
 Current Date     20040321 Current Time         1000
 cg2d: Sum(rhs),rhsMax =   1.74622982740402E-10  4.75224864246175E+03
(PID.TID 0000.0001)                    cg2d_init_res =    2.28038674279840E+04
(PID.TID 0000.0001)                       cg2d_iters =     6
(PID.TID 0000.0001)                         cg2d_res =    4.05648153806698E-10
(PID.TID 0000.0001) // =======================================================
(PID.TID 0000.0001) // Begin MONITOR dynamic field statistics
(PID.TID 0000.0001) // =======================================================
(PID.TID 0000.0001) %MON time_tsnumber                =                     5
(PID.TID 0000.0001) %MON time_secondsf                =   6.0000000000000E+02
(PID.TID 0000.0001) %MON dynstat_eta_max              =   8.3052800751583E+01
(PID.TID 0000.0001) %MON dynstat_eta_min              =  -9.5773864272380E+01
(PID.TID 0000.0001) %MON dynstat_eta_mean             =   9.9345957460651E-17
(PID.TID 0000.0001) %MON dynstat_eta_sd               =   1.5545895947415E+01
(PID.TID 0000.0001) %MON dynstat_eta_del2             =   3.6519882532148E+00
(PID.TID 0000.0001) %MON dynstat_uvel_max             =   4.1593693765587E+01
(PID.TID 0000.0001) %MON dynstat_uvel_min             =  -3.7016702739828E+01
(PID.TID 0000.0001) %MON dynstat_uvel_mean            =   1.7010518203626E+00
(PID.TID 0000.0001) %MON dynstat_uvel_sd              =   7.8666688373625E+00
(PID.TID 0000.0001) %MON dynstat_uvel_del2            =   3.1387107769396E-01
(PID.TID 0000.0001) %MON dynstat_vvel_max             =   3.8203500010348E+01
(PID.TID 0000.0001) %MON dynstat_vvel_min             =  -3.3104515117822E+01
(PID.TID 0000.0001) %MON dynstat_vvel_mean            =   1.6755887996288E+00
(PID.TID 0000.0001) %MON dynstat_vvel_sd              =   7.8563526711400E+00
(PID.TID 0000.0001) %MON dynstat_vvel_del2            =   3.1763982041878E-01
(PID.TID 0000.0001) %MON dynstat_wvel_max             =   2.0141920092925E-01
(PID.TID 0000.0001) %MON dynstat_wvel_min             =  -2.1124998932752E-01
(PID.TID 0000.0001) %MON dynstat_wvel_mean            =  -1.2577452947743E-17
(PID.TID 0000.0001) %MON dynstat_wvel_sd              =   2.6476068340080E-02
(PID.TID 0000.0001) %MON dynstat_wvel_del2            =   6.8270110487309E-03
(PID.TID 0000.0001) %MON dynstat_theta_max            =   4.8634008259795E+02
(PID.TID 0000.0001) %MON dynstat_theta_min            =   2.6911943857752E+02
(PID.TID 0000.0001) %MON dynstat_theta_mean           =   3.2508276352379E+02
(PID.TID 0000.0001) %MON dynstat_theta_sd             =   4.7900404222000E+01
(PID.TID 0000.0001) %MON dynstat_theta_del2           =   9.9531536706061E-02
(PID.TID 0000.0001) %MON dynstat_salt_max             =   2.8979622276750E-02
(PID.TID 0000.0001) %MON dynstat_salt_min             =  -1.5394694399410E-09
(PID.TID 0000.0001) %MON dynstat_salt_mean            =   2.6645515673878E-03
(PID.TID 0000.0001) %MON dynstat_salt_sd              =   4.3871466068855E-03
(PID.TID 0000.0001) %MON dynstat_salt_del2            =   4.5202407088726E-05
(PID.TID 0000.0001) %MON advcfl_uvel_max              =   3.1652243072715E-02
(PID.TID 0000.0001) %MON advcfl_vvel_max              =   3.5273608765329E-02
(PID.TID 0000.0001) %MON advcfl_wvel_max              =   5.0158287928971E-03
(PID.TID 0000.0001) %MON advcfl_W_hf_max              =   5.0168686437765E-03
(PID.TID 0000.0001) %MON pe_b_mean                    =   9.7327524261923E-04
(PID.TID 0000.0001) %MON ke_max                       =   8.6075806491364E+02
(PID.TID 0000.0001) %MON ke_mean                      =   6.4653965517097E+01
(PID.TID 0000.0001) %MON ke_vol                       =   5.1537074390047E+19
(PID.TID 0000.0001) %MON vort_r_min                   =  -4.8304147633521E-05
(PID.TID 0000.0001) %MON vort_r_max                   =   5.4514365045849E-05
(PID.TID 0000.0001) %MON vort_a_mean                  =  -2.1826470680714E-20
(PID.TID 0000.0001) %MON vort_a_sd                    =   8.5821464115117E-05
(PID.TID 0000.0001) %MON vort_p_mean                  =  -2.4251632913208E-20
(PID.TID 0000.0001) %MON vort_p_sd                    =   8.5822070026931E-05
(PID.TID 0000.0001) %MON surfExpan_theta_mean         =   6.6506792848467E-03
(PID.TID 0000.0001) %MON surfExpan_salt_mean          =  -6.8554652836358E-06
(PID.TID 0000.0001) %MON surfExpan_Heat_mean          =   9.3105377559625E-01
(PID.TID 0000.0001) %MON En_Budget_T2PE_mean          =  -1.3468445499769E-01
(PID.TID 0000.0001) // =======================================================
(PID.TID 0000.0001) // End MONITOR dynamic field statistics
(PID.TID 0000.0001) // =======================================================
 Current Date     20040321 Current Time         1200
 cg2d: Sum(rhs),rhsMax =  -5.82076609134674E-11  6.50001230787295E+03
(PID.TID 0000.0001)                    cg2d_init_res =    2.67930206472690E+04
(PID.TID 0000.0001)                       cg2d_iters =     7
(PID.TID 0000.0001)                         cg2d_res =    2.83235140197271E-12
(PID.TID 0000.0001) // =======================================================
(PID.TID 0000.0001) // Begin MONITOR dynamic field statistics
(PID.TID 0000.0001) // =======================================================
(PID.TID 0000.0001) %MON time_tsnumber                =                     6
(PID.TID 0000.0001) %MON time_secondsf                =   7.2000000000000E+02
(PID.TID 0000.0001) %MON dynstat_eta_max              =   9.6323675519541E+01
(PID.TID 0000.0001) %MON dynstat_eta_min              =  -1.3102339362983E+02
(PID.TID 0000.0001) %MON dynstat_eta_mean             =  -2.1856110641343E-15
(PID.TID 0000.0001) %MON dynstat_eta_sd               =   2.1515001232129E+01
(PID.TID 0000.0001) %MON dynstat_eta_del2             =   4.7709706696785E+00
(PID.TID 0000.0001) %MON dynstat_uvel_max             =   4.1575693885074E+01
(PID.TID 0000.0001) %MON dynstat_uvel_min             =  -3.7045109752678E+01
(PID.TID 0000.0001) %MON dynstat_uvel_mean            =   1.7005626377280E+00
(PID.TID 0000.0001) %MON dynstat_uvel_sd              =   7.8646943505359E+00
(PID.TID 0000.0001) %MON dynstat_uvel_del2            =   3.1369159619313E-01
(PID.TID 0000.0001) %MON dynstat_vvel_max             =   3.8185876917575E+01
(PID.TID 0000.0001) %MON dynstat_vvel_min             =  -3.3032411412406E+01
(PID.TID 0000.0001) %MON dynstat_vvel_mean            =   1.6761641281947E+00
(PID.TID 0000.0001) %MON dynstat_vvel_sd              =   7.8569317022352E+00
(PID.TID 0000.0001) %MON dynstat_vvel_del2            =   3.1753982933050E-01
(PID.TID 0000.0001) %MON dynstat_wvel_max             =   2.0398128411021E-01
(PID.TID 0000.0001) %MON dynstat_wvel_min             =  -2.2556672708356E-01
(PID.TID 0000.0001) %MON dynstat_wvel_mean            =  -2.3881239774195E-18
(PID.TID 0000.0001) %MON dynstat_wvel_sd              =   2.6520154800661E-02
(PID.TID 0000.0001) %MON dynstat_wvel_del2            =   6.8537077486674E-03
(PID.TID 0000.0001) %MON dynstat_theta_max            =   4.8643630043859E+02
(PID.TID 0000.0001) %MON dynstat_theta_min            =   2.6912109299769E+02
(PID.TID 0000.0001) %MON dynstat_theta_mean           =   3.2522513801090E+02
(PID.TID 0000.0001) %MON dynstat_theta_sd             =   4.7963313159512E+01
(PID.TID 0000.0001) %MON dynstat_theta_del2           =   1.0925386912662E-01
(PID.TID 0000.0001) %MON dynstat_salt_max             =   2.8367499044264E-02
(PID.TID 0000.0001) %MON dynstat_salt_min             =  -1.9599860318922E-09
(PID.TID 0000.0001) %MON dynstat_salt_mean            =   2.6300982048198E-03
(PID.TID 0000.0001) %MON dynstat_salt_sd              =   4.3198773230549E-03
(PID.TID 0000.0001) %MON dynstat_salt_del2            =   4.6984487442925E-05
(PID.TID 0000.0001) %MON advcfl_uvel_max              =   3.1650851489160E-02
(PID.TID 0000.0001) %MON advcfl_vvel_max              =   3.5253968665668E-02
(PID.TID 0000.0001) %MON advcfl_wvel_max              =   5.3557592501042E-03
(PID.TID 0000.0001) %MON advcfl_W_hf_max              =   5.3566383326421E-03
(PID.TID 0000.0001) %MON pe_b_mean                    =   1.8641760058586E-03
(PID.TID 0000.0001) %MON ke_max                       =   8.5982770543003E+02
(PID.TID 0000.0001) %MON ke_mean                      =   6.4643116250271E+01
(PID.TID 0000.0001) %MON ke_vol                       =   5.1537074390047E+19
(PID.TID 0000.0001) %MON vort_r_min                   =  -4.8294031697673E-05
(PID.TID 0000.0001) %MON vort_r_max                   =   5.4537602952954E-05
(PID.TID 0000.0001) %MON vort_a_mean                  =  -2.4251634089682E-21
(PID.TID 0000.0001) %MON vort_a_sd                    =   8.5821010639776E-05
(PID.TID 0000.0001) %MON vort_p_mean                  =  -2.4251632345165E-21
(PID.TID 0000.0001) %MON vort_p_sd                    =   8.5821945486245E-05
(PID.TID 0000.0001) %MON surfExpan_theta_mean         =   6.5172185573728E-03
(PID.TID 0000.0001) %MON surfExpan_salt_mean          =  -7.5411030309692E-06
(PID.TID 0000.0001) %MON surfExpan_Heat_mean          =   1.0457948158097E+00
(PID.TID 0000.0001) %MON En_Budget_T2PE_mean          =  -7.7214342341647E-02
(PID.TID 0000.0001) // =======================================================
(PID.TID 0000.0001) // End MONITOR dynamic field statistics
(PID.TID 0000.0001) // =======================================================
 Current Date     20040321 Current Time         1400
 cg2d: Sum(rhs),rhsMax =  -1.16415321826935E-10  8.46130011407827E+03
(PID.TID 0000.0001)                    cg2d_init_res =    3.06370928207373E+04
(PID.TID 0000.0001)                       cg2d_iters =     7
(PID.TID 0000.0001)                         cg2d_res =    4.14935840925436E-12
(PID.TID 0000.0001) // =======================================================
(PID.TID 0000.0001) // Begin MONITOR dynamic field statistics
(PID.TID 0000.0001) // =======================================================
(PID.TID 0000.0001) %MON time_tsnumber                =                     7
(PID.TID 0000.0001) %MON time_secondsf                =   8.4000000000000E+02
(PID.TID 0000.0001) %MON dynstat_eta_max              =   1.1362397087529E+02
(PID.TID 0000.0001) %MON dynstat_eta_min              =  -1.7034171239404E+02
(PID.TID 0000.0001) %MON dynstat_eta_mean             =   3.5764544685834E-15
(PID.TID 0000.0001) %MON dynstat_eta_sd               =   2.8333993791021E+01
(PID.TID 0000.0001) %MON dynstat_eta_del2             =   5.9525446533242E+00
(PID.TID 0000.0001) %MON dynstat_uvel_max             =   4.1558830794143E+01
(PID.TID 0000.0001) %MON dynstat_uvel_min             =  -3.7072229173132E+01
(PID.TID 0000.0001) %MON dynstat_uvel_mean            =   1.7000908568035E+00
(PID.TID 0000.0001) %MON dynstat_uvel_sd              =   7.8628030173267E+00
(PID.TID 0000.0001) %MON dynstat_uvel_del2            =   3.1363303080867E-01
(PID.TID 0000.0001) %MON dynstat_vvel_max             =   3.8167879561717E+01
(PID.TID 0000.0001) %MON dynstat_vvel_min             =  -3.2960305236473E+01
(PID.TID 0000.0001) %MON dynstat_vvel_mean            =   1.6767511229971E+00
(PID.TID 0000.0001) %MON dynstat_vvel_sd              =   7.8575314935848E+00
(PID.TID 0000.0001) %MON dynstat_vvel_del2            =   3.1753019874355E-01
(PID.TID 0000.0001) %MON dynstat_wvel_max             =   2.2483354259523E-01
(PID.TID 0000.0001) %MON dynstat_wvel_min             =  -2.4046832556135E-01
(PID.TID 0000.0001) %MON dynstat_wvel_mean            =   4.2986231593551E-18
(PID.TID 0000.0001) %MON dynstat_wvel_sd              =   2.6630526820344E-02
(PID.TID 0000.0001) %MON dynstat_wvel_del2            =   6.9658254729323E-03
(PID.TID 0000.0001) %MON dynstat_theta_max            =   4.8653228477375E+02
(PID.TID 0000.0001) %MON dynstat_theta_min            =   2.6912277439866E+02
(PID.TID 0000.0001) %MON dynstat_theta_mean           =   3.2536757890925E+02
(PID.TID 0000.0001) %MON dynstat_theta_sd             =   4.8032778120578E+01
(PID.TID 0000.0001) %MON dynstat_theta_del2           =   1.2239753667324E-01
(PID.TID 0000.0001) %MON dynstat_salt_max             =   2.7774285033483E-02
(PID.TID 0000.0001) %MON dynstat_salt_min             =  -2.3721294481619E-09
(PID.TID 0000.0001) %MON dynstat_salt_mean            =   2.5956433743136E-03
(PID.TID 0000.0001) %MON dynstat_salt_sd              =   4.2596938122228E-03
(PID.TID 0000.0001) %MON dynstat_salt_del2            =   4.9367560704189E-05
(PID.TID 0000.0001) %MON advcfl_uvel_max              =   3.1649417609345E-02
(PID.TID 0000.0001) %MON advcfl_vvel_max              =   3.5233072311759E-02
(PID.TID 0000.0001) %MON advcfl_wvel_max              =   5.7095763884767E-03
(PID.TID 0000.0001) %MON advcfl_W_hf_max              =   5.7100043463671E-03
(PID.TID 0000.0001) %MON pe_b_mean                    =   3.2331045741502E-03
(PID.TID 0000.0001) %MON ke_max                       =   8.5894733254344E+02
(PID.TID 0000.0001) %MON ke_mean                      =   6.4633137873107E+01
(PID.TID 0000.0001) %MON ke_vol                       =   5.1537074390047E+19
(PID.TID 0000.0001) %MON vort_r_min                   =  -4.8282747567546E-05
(PID.TID 0000.0001) %MON vort_r_max                   =   5.4560381265100E-05
(PID.TID 0000.0001) %MON vort_a_mean                  =   1.4550980453809E-19
(PID.TID 0000.0001) %MON vort_a_sd                    =   8.5820487280966E-05
(PID.TID 0000.0001) %MON vort_p_mean                  =   1.4550979012143E-19
(PID.TID 0000.0001) %MON vort_p_sd                    =   8.5821819437151E-05
(PID.TID 0000.0001) %MON surfExpan_theta_mean         =   5.2210080197889E-03
(PID.TID 0000.0001) %MON surfExpan_salt_mean          =  -8.2300393416560E-06
(PID.TID 0000.0001) %MON surfExpan_Heat_mean          =   1.0753654752584E+00
(PID.TID 0000.0001) %MON En_Budget_T2PE_mean          =  -9.3537438526225E-03
(PID.TID 0000.0001) // =======================================================
(PID.TID 0000.0001) // End MONITOR dynamic field statistics
(PID.TID 0000.0001) // =======================================================
 Current Date     20040321 Current Time         1600
 cg2d: Sum(rhs),rhsMax =   2.32830643653870E-10  1.06757430572379E+04
(PID.TID 0000.0001)                    cg2d_init_res =    3.44079182602859E+04
(PID.TID 0000.0001)                       cg2d_iters =     7
(PID.TID 0000.0001)                         cg2d_res =    5.82784082700941E-12
(PID.TID 0000.0001) // =======================================================
(PID.TID 0000.0001) // Begin MONITOR dynamic field statistics
(PID.TID 0000.0001) // =======================================================
(PID.TID 0000.0001) %MON time_tsnumber                =                     8
(PID.TID 0000.0001) %MON time_secondsf                =   9.6000000000000E+02
(PID.TID 0000.0001) %MON dynstat_eta_max              =   1.3120090012692E+02
(PID.TID 0000.0001) %MON dynstat_eta_min              =  -2.1310021004329E+02
(PID.TID 0000.0001) %MON dynstat_eta_mean             =   2.7816868088982E-15
(PID.TID 0000.0001) %MON dynstat_eta_sd               =   3.5967287678587E+01
(PID.TID 0000.0001) %MON dynstat_eta_del2             =   7.2202013844542E+00
(PID.TID 0000.0001) %MON dynstat_uvel_max             =   4.1543302098249E+01
(PID.TID 0000.0001) %MON dynstat_uvel_min             =  -3.7098010343168E+01
(PID.TID 0000.0001) %MON dynstat_uvel_mean            =   1.6996440331038E+00
(PID.TID 0000.0001) %MON dynstat_uvel_sd              =   7.8609633462539E+00
(PID.TID 0000.0001) %MON dynstat_uvel_del2            =   3.1386558947043E-01
(PID.TID 0000.0001) %MON dynstat_vvel_max             =   3.8149677035368E+01
(PID.TID 0000.0001) %MON dynstat_vvel_min             =  -3.2954576621597E+01
(PID.TID 0000.0001) %MON dynstat_vvel_mean            =   1.6773571889701E+00
(PID.TID 0000.0001) %MON dynstat_vvel_sd              =   7.8581122134232E+00
(PID.TID 0000.0001) %MON dynstat_vvel_del2            =   3.1784182434662E-01
(PID.TID 0000.0001) %MON dynstat_wvel_max             =   2.4559162276352E-01
(PID.TID 0000.0001) %MON dynstat_wvel_min             =  -2.5572182631594E-01
(PID.TID 0000.0001) %MON dynstat_wvel_mean            =  -1.0030120705162E-17
(PID.TID 0000.0001) %MON dynstat_wvel_sd              =   2.6884648982488E-02
(PID.TID 0000.0001) %MON dynstat_wvel_del2            =   7.3036740443156E-03
(PID.TID 0000.0001) %MON dynstat_theta_max            =   4.8662803192806E+02
(PID.TID 0000.0001) %MON dynstat_theta_min            =   2.6912445655363E+02
(PID.TID 0000.0001) %MON dynstat_theta_mean           =   3.2551001895623E+02
(PID.TID 0000.0001) %MON dynstat_theta_sd             =   4.8108757259688E+01
(PID.TID 0000.0001) %MON dynstat_theta_del2           =   1.3652131617342E-01
(PID.TID 0000.0001) %MON dynstat_salt_max             =   2.7182050295961E-02
(PID.TID 0000.0001) %MON dynstat_salt_min             =  -7.6062858311483E-07
(PID.TID 0000.0001) %MON dynstat_salt_mean            =   2.5611892983224E-03
(PID.TID 0000.0001) %MON dynstat_salt_sd              =   4.2039380473880E-03
(PID.TID 0000.0001) %MON dynstat_salt_del2            =   5.2873267214836E-05
(PID.TID 0000.0001) %MON advcfl_uvel_max              =   3.1649623399184E-02
(PID.TID 0000.0001) %MON advcfl_vvel_max              =   3.5211556710084E-02
(PID.TID 0000.0001) %MON advcfl_wvel_max              =   6.0717489429982E-03
(PID.TID 0000.0001) %MON advcfl_W_hf_max              =   6.0714626743258E-03
(PID.TID 0000.0001) %MON pe_b_mean                    =   5.2097818733139E-03
(PID.TID 0000.0001) %MON ke_max                       =   8.5812320978809E+02
(PID.TID 0000.0001) %MON ke_mean                      =   6.4623494651610E+01
(PID.TID 0000.0001) %MON ke_vol                       =   5.1537074390047E+19
(PID.TID 0000.0001) %MON vort_r_min                   =  -4.8270371722558E-05
(PID.TID 0000.0001) %MON vort_r_max                   =   5.4582711170376E-05
(PID.TID 0000.0001) %MON vort_a_mean                  =  -8.7305882722857E-20
(PID.TID 0000.0001) %MON vort_a_sd                    =   8.5819908055688E-05
(PID.TID 0000.0001) %MON vort_p_mean                  =  -8.9731034494176E-20
(PID.TID 0000.0001) %MON vort_p_sd                    =   8.5821702648350E-05
(PID.TID 0000.0001) %MON surfExpan_theta_mean         =   2.4867689864154E-03
(PID.TID 0000.0001) %MON surfExpan_salt_mean          =  -8.8423473629673E-06
(PID.TID 0000.0001) %MON surfExpan_Heat_mean          =   1.0015501949035E+00
(PID.TID 0000.0001) %MON En_Budget_T2PE_mean          =   8.8538134299745E-02
(PID.TID 0000.0001) // =======================================================
(PID.TID 0000.0001) // End MONITOR dynamic field statistics
(PID.TID 0000.0001) // =======================================================
 Current Date     20040321 Current Time         1800
 cg2d: Sum(rhs),rhsMax =   1.16415321826935E-10  1.30712728619558E+04
(PID.TID 0000.0001)                    cg2d_init_res =    3.81992120551714E+04
(PID.TID 0000.0001)                       cg2d_iters =     7
(PID.TID 0000.0001)                         cg2d_res =    7.82565098277635E-12
(PID.TID 0000.0001) // =======================================================
(PID.TID 0000.0001) // Begin MONITOR dynamic field statistics
(PID.TID 0000.0001) // =======================================================
(PID.TID 0000.0001) %MON time_tsnumber                =                     9
(PID.TID 0000.0001) %MON time_secondsf                =   1.0800000000000E+03
(PID.TID 0000.0001) %MON dynstat_eta_max              =   1.5189145064374E+02
(PID.TID 0000.0001) %MON dynstat_eta_min              =  -2.5866653861066E+02
(PID.TID 0000.0001) %MON dynstat_eta_mean             =   3.9738382984260E-16
(PID.TID 0000.0001) %MON dynstat_eta_sd               =   4.4390101699732E+01
(PID.TID 0000.0001) %MON dynstat_eta_del2             =   8.6341766049605E+00
(PID.TID 0000.0001) %MON dynstat_uvel_max             =   4.1529251068266E+01
(PID.TID 0000.0001) %MON dynstat_uvel_min             =  -3.7122386227130E+01
(PID.TID 0000.0001) %MON dynstat_uvel_mean            =   1.6992247306921E+00
(PID.TID 0000.0001) %MON dynstat_uvel_sd              =   7.8592302259513E+00
(PID.TID 0000.0001) %MON dynstat_uvel_del2            =   3.1457677772941E-01
(PID.TID 0000.0001) %MON dynstat_vvel_max             =   3.8131427633085E+01
(PID.TID 0000.0001) %MON dynstat_vvel_min             =  -3.2945545915053E+01
(PID.TID 0000.0001) %MON dynstat_vvel_mean            =   1.6779827561839E+00
(PID.TID 0000.0001) %MON dynstat_vvel_sd              =   7.8587294367725E+00
(PID.TID 0000.0001) %MON dynstat_vvel_del2            =   3.1862510244471E-01
(PID.TID 0000.0001) %MON dynstat_wvel_max             =   2.6587615867963E-01
(PID.TID 0000.0001) %MON dynstat_wvel_min             =  -2.7098699456016E-01
(PID.TID 0000.0001) %MON dynstat_wvel_mean            =   3.1841653032260E-19
(PID.TID 0000.0001) %MON dynstat_wvel_sd              =   2.7433155735792E-02
(PID.TID 0000.0001) %MON dynstat_wvel_del2            =   7.9386584611575E-03
(PID.TID 0000.0001) %MON dynstat_theta_max            =   4.8672355573156E+02
(PID.TID 0000.0001) %MON dynstat_theta_min            =   2.6912614942736E+02
(PID.TID 0000.0001) %MON dynstat_theta_mean           =   3.2565254191720E+02
(PID.TID 0000.0001) %MON dynstat_theta_sd             =   4.8191116295445E+01
(PID.TID 0000.0001) %MON dynstat_theta_del2           =   1.5060668965161E-01
(PID.TID 0000.0001) %MON dynstat_salt_max             =   2.6710527444555E-02
(PID.TID 0000.0001) %MON dynstat_salt_min             =  -8.7146226684825E-04
(PID.TID 0000.0001) %MON dynstat_salt_mean            =   2.5267343419485E-03
(PID.TID 0000.0001) %MON dynstat_salt_sd              =   4.1471767866938E-03
(PID.TID 0000.0001) %MON dynstat_salt_del2            =   5.5649182018258E-05
(PID.TID 0000.0001) %MON advcfl_uvel_max              =   3.1651303706812E-02
(PID.TID 0000.0001) %MON advcfl_vvel_max              =   3.5189668077657E-02
(PID.TID 0000.0001) %MON advcfl_wvel_max              =   6.4341985253697E-03
(PID.TID 0000.0001) %MON advcfl_W_hf_max              =   6.4329956534805E-03
(PID.TID 0000.0001) %MON pe_b_mean                    =   7.9355392352243E-03
(PID.TID 0000.0001) %MON ke_max                       =   8.5735942017870E+02
(PID.TID 0000.0001) %MON ke_mean                      =   6.4615059475079E+01
(PID.TID 0000.0001) %MON ke_vol                       =   5.1537074390047E+19
(PID.TID 0000.0001) %MON vort_r_min                   =  -4.8256984512479E-05
(PID.TID 0000.0001) %MON vort_r_max                   =   5.4604604623946E-05
(PID.TID 0000.0001) %MON vort_a_mean                  =  -7.2754902269047E-20
(PID.TID 0000.0001) %MON vort_a_sd                    =   8.5819277075166E-05
(PID.TID 0000.0001) %MON vort_p_mean                  =  -7.2754890363436E-20
(PID.TID 0000.0001) %MON vort_p_sd                    =   8.5821595846544E-05
(PID.TID 0000.0001) %MON surfExpan_theta_mean         =  -1.9351880010894E-03
(PID.TID 0000.0001) %MON surfExpan_salt_mean          =  -9.3038378793662E-06
(PID.TID 0000.0001) %MON surfExpan_Heat_mean          =   8.0804737539282E-01
(PID.TID 0000.0001) %MON En_Budget_T2PE_mean          =   2.3580579942810E-01
(PID.TID 0000.0001) // =======================================================
(PID.TID 0000.0001) // End MONITOR dynamic field statistics
(PID.TID 0000.0001) // =======================================================
 Current Date     20040321 Current Time         2000
 cg2d: Sum(rhs),rhsMax =   4.65661287307739E-10  1.56232423128458E+04
(PID.TID 0000.0001)                    cg2d_init_res =    4.20804245261586E+04
(PID.TID 0000.0001)                       cg2d_iters =     7
(PID.TID 0000.0001)                         cg2d_res =    1.00801145811478E-11
(PID.TID 0000.0001) // =======================================================
(PID.TID 0000.0001) // Begin MONITOR dynamic field statistics
(PID.TID 0000.0001) // =======================================================
(PID.TID 0000.0001) %MON time_tsnumber                =                    10
(PID.TID 0000.0001) %MON time_secondsf                =   1.2000000000000E+03
(PID.TID 0000.0001) %MON dynstat_eta_max              =   1.7382617847320E+02
(PID.TID 0000.0001) %MON dynstat_eta_min              =  -3.0642296675289E+02
(PID.TID 0000.0001) %MON dynstat_eta_mean             =  -3.9738382984260E-16
(PID.TID 0000.0001) %MON dynstat_eta_sd               =   5.3590663836512E+01
(PID.TID 0000.0001) %MON dynstat_eta_del2             =   1.0245131986771E+01
(PID.TID 0000.0001) %MON dynstat_uvel_max             =   4.1516766159063E+01
(PID.TID 0000.0001) %MON dynstat_uvel_min             =  -3.7145274515983E+01
(PID.TID 0000.0001) %MON dynstat_uvel_mean            =   1.6988385949494E+00
(PID.TID 0000.0001) %MON dynstat_uvel_sd              =   7.8576407494278E+00
(PID.TID 0000.0001) %MON dynstat_uvel_del2            =   3.1584295874412E-01
(PID.TID 0000.0001) %MON dynstat_vvel_max             =   3.8113271448303E+01
(PID.TID 0000.0001) %MON dynstat_vvel_min             =  -3.2933226760453E+01
(PID.TID 0000.0001) %MON dynstat_vvel_mean            =   1.6786333264700E+00
(PID.TID 0000.0001) %MON dynstat_vvel_sd              =   7.8594255079241E+00
(PID.TID 0000.0001) %MON dynstat_vvel_del2            =   3.1995704676873E-01
(PID.TID 0000.0001) %MON dynstat_wvel_max             =   2.8529006788897E-01
(PID.TID 0000.0001) %MON dynstat_wvel_min             =  -2.8584892462874E-01
(PID.TID 0000.0001) %MON dynstat_wvel_mean            =   6.2091223412907E-18
(PID.TID 0000.0001) %MON dynstat_wvel_sd              =   2.8469932151399E-02
(PID.TID 0000.0001) %MON dynstat_wvel_del2            =   8.8858853717756E-03
(PID.TID 0000.0001) %MON dynstat_theta_max            =   4.8681884058838E+02
(PID.TID 0000.0001) %MON dynstat_theta_min            =   2.6912784279844E+02
(PID.TID 0000.0001) %MON dynstat_theta_mean           =   3.2579506336458E+02
(PID.TID 0000.0001) %MON dynstat_theta_sd             =   4.8279874045859E+01
(PID.TID 0000.0001) %MON dynstat_theta_del2           =   1.6490796121505E-01
(PID.TID 0000.0001) %MON dynstat_salt_max             =   2.6305704624389E-02
(PID.TID 0000.0001) %MON dynstat_salt_min             =  -2.5340227902106E-03
(PID.TID 0000.0001) %MON dynstat_salt_mean            =   2.4922802716768E-03
(PID.TID 0000.0001) %MON dynstat_salt_sd              =   4.0936263028957E-03
(PID.TID 0000.0001) %MON dynstat_salt_del2            =   5.8992460366296E-05
(PID.TID 0000.0001) %MON advcfl_uvel_max              =   3.1653145854749E-02
(PID.TID 0000.0001) %MON advcfl_vvel_max              =   3.5167401414921E-02
(PID.TID 0000.0001) %MON advcfl_wvel_max              =   6.7870737941134E-03
(PID.TID 0000.0001) %MON advcfl_W_hf_max              =   6.7848246214438E-03
(PID.TID 0000.0001) %MON pe_b_mean                    =   1.1565979993116E-02
(PID.TID 0000.0001) %MON ke_max                       =   8.5710239087860E+02
(PID.TID 0000.0001) %MON ke_mean                      =   6.4608474948479E+01
(PID.TID 0000.0001) %MON ke_vol                       =   5.1537074390047E+19
(PID.TID 0000.0001) %MON vort_r_min                   =  -4.8242668194057E-05
(PID.TID 0000.0001) %MON vort_r_max                   =   5.4626074319266E-05
(PID.TID 0000.0001) %MON vort_a_mean                  =  -1.4793496794706E-19
(PID.TID 0000.0001) %MON vort_a_sd                    =   8.5818596422804E-05
(PID.TID 0000.0001) %MON vort_p_mean                  =  -1.4793493823402E-19
(PID.TID 0000.0001) %MON vort_p_sd                    =   8.5821497580714E-05
(PID.TID 0000.0001) %MON surfExpan_theta_mean         =  -8.2530019298339E-03
(PID.TID 0000.0001) %MON surfExpan_salt_mean          =  -9.5487441084823E-06
(PID.TID 0000.0001) %MON surfExpan_Heat_mean          =   4.8099878212934E-01
(PID.TID 0000.0001) %MON En_Budget_T2PE_mean          =   4.5071991265096E-01
(PID.TID 0000.0001) // =======================================================
(PID.TID 0000.0001) // End MONITOR dynamic field statistics
(PID.TID 0000.0001) // =======================================================
 Current Date     20040321 Current Time         2200
 cg2d: Sum(rhs),rhsMax =   2.32830643653870E-10  1.83076423408708E+04
(PID.TID 0000.0001)                    cg2d_init_res =    4.60750786568097E+04
(PID.TID 0000.0001)                       cg2d_iters =     7
(PID.TID 0000.0001)                         cg2d_res =    1.25105476109183E-11
(PID.TID 0000.0001) // =======================================================
(PID.TID 0000.0001) // Begin MONITOR dynamic field statistics
(PID.TID 0000.0001) // =======================================================
(PID.TID 0000.0001) %MON time_tsnumber                =                    11
(PID.TID 0000.0001) %MON time_secondsf                =   1.3200000000000E+03
(PID.TID 0000.0001) %MON dynstat_eta_max              =   1.9598170082505E+02
(PID.TID 0000.0001) %MON dynstat_eta_min              =  -3.5578086045227E+02
(PID.TID 0000.0001) %MON dynstat_eta_mean             =   1.6690120853389E-14
(PID.TID 0000.0001) %MON dynstat_eta_sd               =   6.3567442730666E+01
(PID.TID 0000.0001) %MON dynstat_eta_del2             =   1.2057725786293E+01
(PID.TID 0000.0001) %MON dynstat_uvel_max             =   4.1505887157276E+01
(PID.TID 0000.0001) %MON dynstat_uvel_min             =  -3.7166581851184E+01
(PID.TID 0000.0001) %MON dynstat_uvel_mean            =   1.6984881809364E+00
(PID.TID 0000.0001) %MON dynstat_uvel_sd              =   7.8562490488064E+00
(PID.TID 0000.0001) %MON dynstat_uvel_del2            =   3.1765871984427E-01
(PID.TID 0000.0001) %MON dynstat_vvel_max             =   3.8095319729514E+01
(PID.TID 0000.0001) %MON dynstat_vvel_min             =  -3.2917663802415E+01
(PID.TID 0000.0001) %MON dynstat_vvel_mean            =   1.6793096753743E+00
(PID.TID 0000.0001) %MON dynstat_vvel_sd              =   7.8602522605071E+00
(PID.TID 0000.0001) %MON dynstat_vvel_del2            =   3.2184442386599E-01
(PID.TID 0000.0001) %MON dynstat_wvel_max             =   3.0343048991481E-01
(PID.TID 0000.0001) %MON dynstat_wvel_min             =  -2.9985314556915E-01
(PID.TID 0000.0001) %MON dynstat_wvel_mean            =   1.2259036417420E-17
(PID.TID 0000.0001) %MON dynstat_wvel_sd              =   3.0190003964891E-02
(PID.TID 0000.0001) %MON dynstat_wvel_del2            =   1.0124244400423E-02
(PID.TID 0000.0001) %MON dynstat_theta_max            =   4.8691390579898E+02
(PID.TID 0000.0001) %MON dynstat_theta_min            =   2.6912953907938E+02
(PID.TID 0000.0001) %MON dynstat_theta_mean           =   3.2591453034934E+02
(PID.TID 0000.0001) %MON dynstat_theta_sd             =   4.8329451389400E+01
(PID.TID 0000.0001) %MON dynstat_theta_del2           =   1.7061241629875E-01
(PID.TID 0000.0001) %MON dynstat_salt_max             =   2.5784708974709E-02
(PID.TID 0000.0001) %MON dynstat_salt_min             =  -4.4435636378521E-06
(PID.TID 0000.0001) %MON dynstat_salt_mean            =   2.4617927983845E-03
(PID.TID 0000.0001) %MON dynstat_salt_sd              =   4.0259943045296E-03
(PID.TID 0000.0001) %MON dynstat_salt_del2            =   5.8425484081389E-05
(PID.TID 0000.0001) %MON advcfl_uvel_max              =   3.1653477388721E-02
(PID.TID 0000.0001) %MON advcfl_vvel_max              =   3.5144679864396E-02
(PID.TID 0000.0001) %MON advcfl_wvel_max              =   7.2045229105219E-03
(PID.TID 0000.0001) %MON advcfl_W_hf_max              =   7.1960485568654E-03
(PID.TID 0000.0001) %MON pe_b_mean                    =   1.6273225558466E-02
(PID.TID 0000.0001) %MON ke_max                       =   8.5709769624387E+02
(PID.TID 0000.0001) %MON ke_mean                      =   6.4604578901666E+01
(PID.TID 0000.0001) %MON ke_vol                       =   5.1537074390047E+19
(PID.TID 0000.0001) %MON vort_r_min                   =  -4.8227504425621E-05
(PID.TID 0000.0001) %MON vort_r_max                   =   5.4647133532352E-05
(PID.TID 0000.0001) %MON vort_a_mean                  =  -6.5479412042143E-20
(PID.TID 0000.0001) %MON vort_a_sd                    =   8.5817861885576E-05
(PID.TID 0000.0001) %MON vort_p_mean                  =  -7.0329721886970E-20
(PID.TID 0000.0001) %MON vort_p_sd                    =   8.5821400018507E-05
(PID.TID 0000.0001) %MON surfExpan_theta_mean         =  -1.5622570811086E-02
(PID.TID 0000.0001) %MON surfExpan_salt_mean          =  -9.6717170630464E-06
(PID.TID 0000.0001) %MON surfExpan_Heat_mean          =   4.7465852553646E-02
(PID.TID 0000.0001) %MON En_Budget_T2PE_mean          =   7.1740139830491E-01
(PID.TID 0000.0001) // =======================================================
(PID.TID 0000.0001) // End MONITOR dynamic field statistics
(PID.TID 0000.0001) // =======================================================
 Current Date     20040321 Current Time         2400
 cg2d: Sum(rhs),rhsMax =   0.00000000000000E+00  2.11014910466582E+04
(PID.TID 0000.0001)                    cg2d_init_res =    5.00634498871345E+04
(PID.TID 0000.0001)                       cg2d_iters =     7
(PID.TID 0000.0001)                         cg2d_res =    1.49843726318093E-11
(PID.TID 0000.0001) // =======================================================
(PID.TID 0000.0001) // Begin MONITOR dynamic field statistics
(PID.TID 0000.0001) // =======================================================
(PID.TID 0000.0001) %MON time_tsnumber                =                    12
(PID.TID 0000.0001) %MON time_secondsf                =   1.4400000000000E+03
(PID.TID 0000.0001) %MON dynstat_eta_max              =   2.1848246892732E+02
(PID.TID 0000.0001) %MON dynstat_eta_min              =  -4.0619435604686E+02
(PID.TID 0000.0001) %MON dynstat_eta_mean             =   0.0000000000000E+00
(PID.TID 0000.0001) %MON dynstat_eta_sd               =   7.4314490506970E+01
(PID.TID 0000.0001) %MON dynstat_eta_del2             =   1.4045412814878E+01
(PID.TID 0000.0001) %MON dynstat_uvel_max             =   4.1496607236242E+01
(PID.TID 0000.0001) %MON dynstat_uvel_min             =  -3.7186205770374E+01
(PID.TID 0000.0001) %MON dynstat_uvel_mean            =   1.6981762681700E+00
(PID.TID 0000.0001) %MON dynstat_uvel_sd              =   7.8551068115904E+00
(PID.TID 0000.0001) %MON dynstat_uvel_del2            =   3.1981609102132E-01
(PID.TID 0000.0001) %MON dynstat_vvel_max             =   3.8077648037208E+01
(PID.TID 0000.0001) %MON dynstat_vvel_min             =  -3.2898930458430E+01
(PID.TID 0000.0001) %MON dynstat_vvel_mean            =   1.6800188291175E+00
(PID.TID 0000.0001) %MON dynstat_vvel_sd              =   7.8612758424848E+00
(PID.TID 0000.0001) %MON dynstat_vvel_del2            =   3.2406438453487E-01
(PID.TID 0000.0001) %MON dynstat_wvel_max             =   3.1992965969360E-01
(PID.TID 0000.0001) %MON dynstat_wvel_min             =  -3.1254860354661E-01
(PID.TID 0000.0001) %MON dynstat_wvel_mean            =   9.8709124400006E-18
(PID.TID 0000.0001) %MON dynstat_wvel_sd              =   3.2550607690381E-02
(PID.TID 0000.0001) %MON dynstat_wvel_del2            =   1.1525813282265E-02
(PID.TID 0000.0001) %MON dynstat_theta_max            =   4.8700872985689E+02
(PID.TID 0000.0001) %MON dynstat_theta_min            =   2.6913123557450E+02
(PID.TID 0000.0001) %MON dynstat_theta_mean           =   3.2603399527639E+02
(PID.TID 0000.0001) %MON dynstat_theta_sd             =   4.8383869977824E+01
(PID.TID 0000.0001) %MON dynstat_theta_del2           =   1.8286690218706E-01
(PID.TID 0000.0001) %MON dynstat_salt_max             =   2.5264756671101E-02
(PID.TID 0000.0001) %MON dynstat_salt_min             =  -8.4839594527804E-03
(PID.TID 0000.0001) %MON dynstat_salt_mean            =   2.4313064898405E-03
(PID.TID 0000.0001) %MON dynstat_salt_sd              =   4.0398817414097E-03
(PID.TID 0000.0001) %MON dynstat_salt_del2            =   7.4766176170404E-05
(PID.TID 0000.0001) %MON advcfl_uvel_max              =   3.1650898861797E-02
(PID.TID 0000.0001) %MON advcfl_vvel_max              =   3.5121505086208E-02
(PID.TID 0000.0001) %MON advcfl_wvel_max              =   7.5962720940308E-03
(PID.TID 0000.0001) %MON advcfl_W_hf_max              =   7.5864135544316E-03
(PID.TID 0000.0001) %MON pe_b_mean                    =   2.2240839319847E-02
(PID.TID 0000.0001) %MON ke_max                       =   8.5709512705959E+02
(PID.TID 0000.0001) %MON ke_mean                      =   6.4604313386404E+01
(PID.TID 0000.0001) %MON ke_vol                       =   5.1537074390047E+19
(PID.TID 0000.0001) %MON vort_r_min                   =  -4.8211572234072E-05
(PID.TID 0000.0001) %MON vort_r_max                   =   5.4667795997816E-05
(PID.TID 0000.0001) %MON vort_a_mean                  =  -1.8188725567262E-19
(PID.TID 0000.0001) %MON vort_a_sd                    =   8.5817087873555E-05
(PID.TID 0000.0001) %MON vort_p_mean                  =  -1.8188720381029E-19
(PID.TID 0000.0001) %MON vort_p_sd                    =   8.5821313845915E-05
(PID.TID 0000.0001) %MON surfExpan_theta_mean         =  -2.4879492684085E-02
(PID.TID 0000.0001) %MON surfExpan_salt_mean          =  -9.5050721617012E-06
(PID.TID 0000.0001) %MON surfExpan_Heat_mean          =  -5.2763270872152E-01
(PID.TID 0000.0001) %MON En_Budget_T2PE_mean          =   1.0466370049704E+00
(PID.TID 0000.0001) // =======================================================
(PID.TID 0000.0001) // End MONITOR dynamic field statistics
(PID.TID 0000.0001) // =======================================================
 Current Date     20040321 Current Time         2600
 cg2d: Sum(rhs),rhsMax =   2.32830643653870E-10  2.39831079809405E+04
(PID.TID 0000.0001)                    cg2d_init_res =    5.40553627556821E+04
(PID.TID 0000.0001)                       cg2d_iters =     7
(PID.TID 0000.0001)                         cg2d_res =    1.74015194796288E-11
(PID.TID 0000.0001) // =======================================================
(PID.TID 0000.0001) // Begin MONITOR dynamic field statistics
(PID.TID 0000.0001) // =======================================================
(PID.TID 0000.0001) %MON time_tsnumber                =                    13
(PID.TID 0000.0001) %MON time_secondsf                =   1.5600000000000E+03
(PID.TID 0000.0001) %MON dynstat_eta_max              =   2.4638522813029E+02
(PID.TID 0000.0001) %MON dynstat_eta_min              =  -4.5717019072770E+02
(PID.TID 0000.0001) %MON dynstat_eta_mean             =  -2.3843029790556E-15
(PID.TID 0000.0001) %MON dynstat_eta_sd               =   8.5823636955851E+01
(PID.TID 0000.0001) %MON dynstat_eta_del2             =   1.6182118737239E+01
(PID.TID 0000.0001) %MON dynstat_uvel_max             =   4.1488880493166E+01
(PID.TID 0000.0001) %MON dynstat_uvel_min             =  -3.7204039758367E+01
(PID.TID 0000.0001) %MON dynstat_uvel_mean            =   1.6979050524547E+00
(PID.TID 0000.0001) %MON dynstat_uvel_sd              =   7.8542891041408E+00
(PID.TID 0000.0001) %MON dynstat_uvel_del2            =   3.2239650123229E-01
(PID.TID 0000.0001) %MON dynstat_vvel_max             =   3.8060288296122E+01
(PID.TID 0000.0001) %MON dynstat_vvel_min             =  -3.2877125544928E+01
(PID.TID 0000.0001) %MON dynstat_vvel_mean            =   1.6807609627813E+00
(PID.TID 0000.0001) %MON dynstat_vvel_sd              =   7.8625730944771E+00
(PID.TID 0000.0001) %MON dynstat_vvel_del2            =   3.2667577196735E-01
(PID.TID 0000.0001) %MON dynstat_wvel_max             =   3.3446448657427E-01
(PID.TID 0000.0001) %MON dynstat_wvel_min             =  -3.7147711744030E-01
(PID.TID 0000.0001) %MON dynstat_wvel_mean            =   8.5972463187102E-18
(PID.TID 0000.0001) %MON dynstat_wvel_sd              =   3.5594268475452E-02
(PID.TID 0000.0001) %MON dynstat_wvel_del2            =   1.3091686278317E-02
(PID.TID 0000.0001) %MON dynstat_theta_max            =   4.8710333760503E+02
(PID.TID 0000.0001) %MON dynstat_theta_min            =   2.6913293166559E+02
(PID.TID 0000.0001) %MON dynstat_theta_mean           =   3.2615342548612E+02
(PID.TID 0000.0001) %MON dynstat_theta_sd             =   4.8442133350690E+01
(PID.TID 0000.0001) %MON dynstat_theta_del2           =   1.9646024107880E-01
(PID.TID 0000.0001) %MON dynstat_salt_max             =   2.4761403872278E-02
(PID.TID 0000.0001) %MON dynstat_salt_min             =  -1.5665511695425E-02
(PID.TID 0000.0001) %MON dynstat_salt_mean            =   2.4008166203080E-03
(PID.TID 0000.0001) %MON dynstat_salt_sd              =   4.0989813065951E-03
(PID.TID 0000.0001) %MON dynstat_salt_del2            =   8.8317023358918E-05
(PID.TID 0000.0001) %MON advcfl_uvel_max              =   3.1644626237231E-02
(PID.TID 0000.0001) %MON advcfl_vvel_max              =   3.5098026102415E-02
(PID.TID 0000.0001) %MON advcfl_wvel_max              =   8.8201927370075E-03
(PID.TID 0000.0001) %MON advcfl_W_hf_max              =   8.8438276802706E-03
(PID.TID 0000.0001) %MON pe_b_mean                    =   2.9663199502481E-02
(PID.TID 0000.0001) %MON ke_max                       =   8.5709908363316E+02
(PID.TID 0000.0001) %MON ke_mean                      =   6.4608875960401E+01
(PID.TID 0000.0001) %MON ke_vol                       =   5.1537074390047E+19
(PID.TID 0000.0001) %MON vort_r_min                   =  -4.8194941776877E-05
(PID.TID 0000.0001) %MON vort_r_max                   =   5.4688075537694E-05
(PID.TID 0000.0001) %MON vort_a_mean                  =  -2.9101960907619E-20
(PID.TID 0000.0001) %MON vort_a_sd                    =   8.5816268733235E-05
(PID.TID 0000.0001) %MON vort_p_mean                  =  -2.9101951237248E-20
(PID.TID 0000.0001) %MON vort_p_sd                    =   8.5821229909548E-05
(PID.TID 0000.0001) %MON surfExpan_theta_mean         =  -3.6257186277714E-02
(PID.TID 0000.0001) %MON surfExpan_salt_mean          =  -8.9708654024097E-06
(PID.TID 0000.0001) %MON surfExpan_Heat_mean          =  -1.2616297006882E+00
(PID.TID 0000.0001) %MON En_Budget_T2PE_mean          =   1.4518748415146E+00
(PID.TID 0000.0001) // =======================================================
(PID.TID 0000.0001) // End MONITOR dynamic field statistics
(PID.TID 0000.0001) // =======================================================
 Current Date     20040321 Current Time         2800
 cg2d: Sum(rhs),rhsMax =   9.31322574615479E-10  2.69323318229550E+04
(PID.TID 0000.0001)                    cg2d_init_res =    5.80942521480392E+04
(PID.TID 0000.0001)                       cg2d_iters =     7
(PID.TID 0000.0001)                         cg2d_res =    1.97004809063867E-11
(PID.TID 0000.0001) // =======================================================
(PID.TID 0000.0001) // Begin MONITOR dynamic field statistics
(PID.TID 0000.0001) // =======================================================
(PID.TID 0000.0001) %MON time_tsnumber                =                    14
(PID.TID 0000.0001) %MON time_secondsf                =   1.6800000000000E+03
(PID.TID 0000.0001) %MON dynstat_eta_max              =   2.7795291857310E+02
(PID.TID 0000.0001) %MON dynstat_eta_min              =  -5.0827534966644E+02
(PID.TID 0000.0001) %MON dynstat_eta_mean             =   7.9476765968521E-16
(PID.TID 0000.0001) %MON dynstat_eta_sd               =   9.8087811544454E+01
(PID.TID 0000.0001) %MON dynstat_eta_del2             =   1.8438570692392E+01
(PID.TID 0000.0001) %MON dynstat_uvel_max             =   4.1482625483438E+01
(PID.TID 0000.0001) %MON dynstat_uvel_min             =  -3.7219975780954E+01
(PID.TID 0000.0001) %MON dynstat_uvel_mean            =   1.6976793889649E+00
(PID.TID 0000.0001) %MON dynstat_uvel_sd              =   7.8538596813562E+00
(PID.TID 0000.0001) %MON dynstat_uvel_del2            =   3.2551888206979E-01
(PID.TID 0000.0001) %MON dynstat_vvel_max             =   3.8043225174285E+01
(PID.TID 0000.0001) %MON dynstat_vvel_min             =  -3.2852370017432E+01
(PID.TID 0000.0001) %MON dynstat_vvel_mean            =   1.6815403449523E+00
(PID.TID 0000.0001) %MON dynstat_vvel_sd              =   7.8642104564289E+00
(PID.TID 0000.0001) %MON dynstat_vvel_del2            =   3.2977130116421E-01
(PID.TID 0000.0001) %MON dynstat_wvel_max             =   3.4678874910014E-01
(PID.TID 0000.0001) %MON dynstat_wvel_min             =  -4.5172883413011E-01
(PID.TID 0000.0001) %MON dynstat_wvel_mean            =   3.0249570380647E-18
(PID.TID 0000.0001) %MON dynstat_wvel_sd              =   3.9350267837757E-02
(PID.TID 0000.0001) %MON dynstat_wvel_del2            =   1.4820439406006E-02
(PID.TID 0000.0001) %MON dynstat_theta_max            =   4.8719770182964E+02
(PID.TID 0000.0001) %MON dynstat_theta_min            =   2.6913462768493E+02
(PID.TID 0000.0001) %MON dynstat_theta_mean           =   3.2627285314091E+02
(PID.TID 0000.0001) %MON dynstat_theta_sd             =   4.8504239454181E+01
(PID.TID 0000.0001) %MON dynstat_theta_del2           =   2.1102520223413E-01
(PID.TID 0000.0001) %MON dynstat_salt_max             =   2.5398473244324E-02
(PID.TID 0000.0001) %MON dynstat_salt_min             =  -2.2818496748704E-02
(PID.TID 0000.0001) %MON dynstat_salt_mean            =   2.3703281191616E-03
(PID.TID 0000.0001) %MON dynstat_salt_sd              =   4.2041078167060E-03
(PID.TID 0000.0001) %MON dynstat_salt_del2            =   1.0325810065532E-04
(PID.TID 0000.0001) %MON advcfl_uvel_max              =   3.1634543879888E-02
(PID.TID 0000.0001) %MON advcfl_vvel_max              =   3.5074528585112E-02
(PID.TID 0000.0001) %MON advcfl_wvel_max              =   1.0725654945709E-02
(PID.TID 0000.0001) %MON advcfl_W_hf_max              =   1.0760490561256E-02
(PID.TID 0000.0001) %MON pe_b_mean                    =   3.8746658340523E-02
(PID.TID 0000.0001) %MON ke_max                       =   8.5711362255216E+02
(PID.TID 0000.0001) %MON ke_mean                      =   6.4619305568423E+01
(PID.TID 0000.0001) %MON ke_vol                       =   5.1537074390047E+19
(PID.TID 0000.0001) %MON vort_r_min                   =  -4.8177674389967E-05
(PID.TID 0000.0001) %MON vort_r_max                   =   5.4707986539478E-05
(PID.TID 0000.0001) %MON vort_a_mean                  =  -7.0329738860079E-20
(PID.TID 0000.0001) %MON vort_a_sd                    =   8.5815415829421E-05
(PID.TID 0000.0001) %MON vort_p_mean                  =  -6.7904549454666E-20
(PID.TID 0000.0001) %MON vort_p_sd                    =   8.5821156001290E-05
(PID.TID 0000.0001) %MON surfExpan_theta_mean         =  -4.9952386067341E-02
(PID.TID 0000.0001) %MON surfExpan_salt_mean          =  -8.0052406174909E-06
(PID.TID 0000.0001) %MON surfExpan_Heat_mean          =  -2.1689513068282E+00
(PID.TID 0000.0001) %MON En_Budget_T2PE_mean          =   1.9460505469013E+00
(PID.TID 0000.0001) // =======================================================
(PID.TID 0000.0001) // End MONITOR dynamic field statistics
(PID.TID 0000.0001) // =======================================================
 Current Date     20040321 Current Time         3000
 cg2d: Sum(rhs),rhsMax =   4.65661287307739E-10  2.99306345999843E+04
(PID.TID 0000.0001)                    cg2d_init_res =    6.22185535411948E+04
(PID.TID 0000.0001)                       cg2d_iters =     7
(PID.TID 0000.0001)                         cg2d_res =    2.18548431444783E-11
(PID.TID 0000.0001) // =======================================================
(PID.TID 0000.0001) // Begin MONITOR dynamic field statistics
(PID.TID 0000.0001) // =======================================================
(PID.TID 0000.0001) %MON time_tsnumber                =                    15
(PID.TID 0000.0001) %MON time_secondsf                =   1.8000000000000E+03
(PID.TID 0000.0001) %MON dynstat_eta_max              =   3.1029293364784E+02
(PID.TID 0000.0001) %MON dynstat_eta_min              =  -5.5914128212023E+02
(PID.TID 0000.0001) %MON dynstat_eta_mean             =   1.5895353193704E-15
(PID.TID 0000.0001) %MON dynstat_eta_sd               =   1.1110363929697E+02
(PID.TID 0000.0001) %MON dynstat_eta_del2             =   2.0798354745640E+01
(PID.TID 0000.0001) %MON dynstat_uvel_max             =   4.1477733000991E+01
(PID.TID 0000.0001) %MON dynstat_uvel_min             =  -3.7233909387175E+01
(PID.TID 0000.0001) %MON dynstat_uvel_mean            =   1.6975017393711E+00
(PID.TID 0000.0001) %MON dynstat_uvel_sd              =   7.8539072570420E+00
(PID.TID 0000.0001) %MON dynstat_uvel_del2            =   3.2929805641677E-01
(PID.TID 0000.0001) %MON dynstat_vvel_max             =   3.8026392943183E+01
(PID.TID 0000.0001) %MON dynstat_vvel_min             =  -3.2824802901644E+01
(PID.TID 0000.0001) %MON dynstat_vvel_mean            =   1.6823575862062E+00
(PID.TID 0000.0001) %MON dynstat_vvel_sd              =   7.8662784088262E+00
(PID.TID 0000.0001) %MON dynstat_vvel_del2            =   3.3341626640718E-01
(PID.TID 0000.0001) %MON dynstat_wvel_max             =   3.5673543894111E-01
(PID.TID 0000.0001) %MON dynstat_wvel_min             =  -5.3845244477575E-01
(PID.TID 0000.0001) %MON dynstat_wvel_mean            =  -2.3881239774195E-18
(PID.TID 0000.0001) %MON dynstat_wvel_sd              =   4.3846228005754E-02
(PID.TID 0000.0001) %MON dynstat_wvel_del2            =   1.6714671279833E-02
(PID.TID 0000.0001) %MON dynstat_theta_max            =   4.8729185290730E+02
(PID.TID 0000.0001) %MON dynstat_theta_min            =   2.6913632186180E+02
(PID.TID 0000.0001) %MON dynstat_theta_mean           =   3.2639230786051E+02
(PID.TID 0000.0001) %MON dynstat_theta_sd             =   4.8570341857844E+01
(PID.TID 0000.0001) %MON dynstat_theta_del2           =   2.2645258243692E-01
(PID.TID 0000.0001) %MON dynstat_salt_max             =   3.0935449376873E-02
(PID.TID 0000.0001) %MON dynstat_salt_min             =  -3.0157222230561E-02
(PID.TID 0000.0001) %MON dynstat_salt_mean            =   2.3398355103902E-03
(PID.TID 0000.0001) %MON dynstat_salt_sd              =   4.3585814632824E-03
(PID.TID 0000.0001) %MON dynstat_salt_del2            =   1.1916959185163E-04
(PID.TID 0000.0001) %MON advcfl_uvel_max              =   3.1621038650269E-02
(PID.TID 0000.0001) %MON advcfl_vvel_max              =   3.5051361996197E-02
(PID.TID 0000.0001) %MON advcfl_wvel_max              =   1.2784783018023E-02
(PID.TID 0000.0001) %MON advcfl_W_hf_max              =   1.2834100456834E-02
(PID.TID 0000.0001) %MON pe_b_mean                    =   4.9711942428372E-02
(PID.TID 0000.0001) %MON ke_max                       =   8.5714241103408E+02
(PID.TID 0000.0001) %MON ke_mean                      =   6.4637017129410E+01
(PID.TID 0000.0001) %MON ke_vol                       =   5.1537074390047E+19
(PID.TID 0000.0001) %MON vort_r_min                   =  -4.8159824436871E-05
(PID.TID 0000.0001) %MON vort_r_max                   =   5.4727543960754E-05
(PID.TID 0000.0001) %MON vort_a_mean                  =   5.8203921815238E-20
(PID.TID 0000.0001) %MON vort_a_sd                    =   8.5814526940981E-05
(PID.TID 0000.0001) %MON vort_p_mean                  =   5.8203896394169E-20
(PID.TID 0000.0001) %MON vort_p_sd                    =   8.5821086319865E-05
(PID.TID 0000.0001) %MON surfExpan_theta_mean         =  -6.6116801917331E-02
(PID.TID 0000.0001) %MON surfExpan_salt_mean          =  -6.5578219725498E-06
(PID.TID 0000.0001) %MON surfExpan_Heat_mean          =  -3.2606095132533E+00
(PID.TID 0000.0001) %MON En_Budget_T2PE_mean          =   2.5416035583287E+00
(PID.TID 0000.0001) // =======================================================
(PID.TID 0000.0001) // End MONITOR dynamic field statistics
(PID.TID 0000.0001) // =======================================================
 Computing Diagnostic # 201  RADSWT       Counter:      15   Parms: SM      U1      
 Computing Diagnostic # 224  OSR          Counter:      15   Parms: SM      U1      
 Computing Diagnostic # 190  OLR          Counter:       1   Parms: SM      U1      
 Computing Diagnostic # 363  PLALBEDO     Counter:      15   Parms: SM      L1      
 Computing Diagnostic # 254  CLDFRC       Counter:       1   Parms: SM P    M1      
 Computing Diagnostic # 174  PREACC       Counter:       3   Parms: SM      L1      
 Computing Diagnostic # 175  PRECON       Counter:       3   Parms: SM      L1      
 Computing Diagnostic # 205  EVAP         Counter:       8   Parms: SM      L1      
 Computing Diagnostic # 158  RADSWG       Counter:      15   Parms: SM      L1      
 Computing Diagnostic # 334  ALBNIRDF     Counter:       1   Parms: SM      L1      
 Computing Diagnostic # 332  ALBVISDF     Counter:       1   Parms: SM      L1      
 Computing Diagnostic # 199  LWGDOWN      Counter:       8   Parms: SM      L1      
 Computing Diagnostic # 189  LWGUP        Counter:      15   Parms: SM      L1      
 Computing Diagnostic # 153  EFLUX        Counter:       8   Parms: SM      L1      
 Computing Diagnostic # 152  HFLUX        Counter:       8   Parms: SM      L1      
 Computing Diagnostic # 258  T2M          Counter:       8   Parms: SM      M1      
 Computing Diagnostic # 259  Q2M          Counter:       8   Parms: SM P    M1      
 Computing Diagnostic # 154  UFLUX        Counter:       8   Parms: UM   155L1      
           Vector  Mate for  UFLUX        Diagnostic # 155  VFLUX    exists 
 Computing Diagnostic # 155  VFLUX        Counter:       8   Parms: VM   154L1      
           Vector  Mate for  VFLUX        Diagnostic # 154  UFLUX    exists 
 Computing Diagnostic # 260  U10M         Counter:       8   Parms: UM   261M1      
           Vector  Mate for  U10M         Diagnostic # 261  V10M     exists 
 Computing Diagnostic # 261  V10M         Counter:       8   Parms: VM   260M1      
           Vector  Mate for  V10M         Diagnostic # 260  U10M     exists 
 Computing Diagnostic # 232  PS           Counter:      15   Parms: SM      L1      
 Computing Diagnostic # 225  OSRCLR       Counter:      15   Parms: SM      U1      
 Computing Diagnostic # 191  OLRCLR       Counter:       1   Parms: SM      U1      
 Computing Diagnostic # 235  SWGCLR       Counter:      15   Parms: SM      L1      
 Computing Diagnostic # 192  LWGCLR       Counter:      15   Parms: SM      L1      
 Computing Diagnostic #  78  RSURF        Counter:      15   Parms: SM      M1      
 Computing Diagnostic #  29  UVEL         Counter:      -1   Parms: UU   030MR      
           Vector  Mate for  UVEL         Diagnostic #  30  VVEL     not enabled
 Computing Diagnostic #  30  VVEL         Counter:      -1   Parms: VV   029MR      
           Vector  Mate for  VVEL         Diagnostic #  29  UVEL     not enabled
 Computing Diagnostic #  63  PHIHYD       Counter:      -1   Parms: SM      MR      
 Computing Diagnostic #  31  WVEL         Counter:      -1   Parms: WM      LR      
 Computing Diagnostic #  27  SALT         Counter:      -1   Parms: SM      MR      
 Computing Diagnostic #  28  RELHUM       Counter:      -1   Parms: SM      MR      
 Computing Diagnostic #  77  PRESSURE     Counter:      -1   Parms: SM      MR      
 Computing Diagnostic #  26  THETA        Counter:      -1   Parms: SM      MR      
 Computing Diagnostic #  34  UVELSQ       Counter:      -1   Parms: UU   035MR      
           Vector  Mate for  UVELSQ       Diagnostic #  35  VVELSQ   not enabled
 Computing Diagnostic #  35  VVELSQ       Counter:      -1   Parms: VV   034MR      
           Vector  Mate for  VVELSQ       Diagnostic #  34  UVELSQ   not enabled
 Computing Diagnostic #  32  THETASQ      Counter:      -1   Parms: SM      MR      
 Computing Diagnostic #  36  WVELSQ       Counter:      -1   Parms: WM      LR      
 Computing Diagnostic #  64  PHIHYDSQ     Counter:      -1   Parms: SM      MR      
 Computing Diagnostic #  33  SALTSQ       Counter:      -1   Parms: SM      MR      
 Computing Diagnostic #  37  UV_VEL_C     Counter:      -1   Parms: UM   037MR      
           Vector  Mate for  UV_VEL_C     Diagnostic #  37  UV_VEL_C not enabled
 Computing Diagnostic #  39  WU_VEL       Counter:      -1   Parms: WU      LR      
 Computing Diagnostic #  40  WV_VEL       Counter:      -1   Parms: WV      LR      
 Computing Diagnostic #  51  VVELTH       Counter:      -1   Parms: VV   050MR      
           Vector  Mate for  VVELTH       Diagnostic #  50  UVELTH   not enabled
 Computing Diagnostic #  52  WVELTH       Counter:      -1   Parms: WM      LR      
 Computing Diagnostic #  54  VVELSLT      Counter:      -1   Parms: VV   053MR      
           Vector  Mate for  VVELSLT      Diagnostic #  53  UVELSLT  not enabled
 Computing Diagnostic #  55  WVELSLT      Counter:      -1   Parms: WM      LR      
 Computing Diagnostic #  53  UVELSLT      Counter:      -1   Parms: UU   054MR      
           Vector  Mate for  UVELSLT      Diagnostic #  54  VVELSLT  not enabled
 Computing Diagnostic #  50  UVELTH       Counter:      -1   Parms: UU   051MR      
           Vector  Mate for  UVELTH       Diagnostic #  51  VVELTH   not enabled
 Computing Diagnostic #  56  UVELPHI      Counter:      -1   Parms: UU   057MR      
           Vector  Mate for  UVELPHI      Diagnostic #  57  VVELPHI  not enabled
 Computing Diagnostic #  57  VVELPHI      Counter:      -1   Parms: VV   056MR      
           Vector  Mate for  VVELPHI      Diagnostic #  56  UVELPHI  not enabled
 Compute Stats, Diag. # 201  RADSWT    vol(  0 ): 7.648E+15  Parms: SM      U1      
 Compute Stats, Diag. # 224  OSR       vol(  0 ): 7.648E+15  Parms: SM      U1      
 Compute Stats, Diag. # 190  OLR       vol(  0 ): 5.099E+14  Parms: SM      U1      
 Compute Stats, Diag. # 363  PLALBEDO  vol(  0 ): 7.648E+15  Parms: SM      L1      
 Compute Stats, Diag. # 254  CLDFRC    vol(  0 ): 5.099E+14  Parms: SM P    M1      
 Compute Stats, Diag. # 174  PREACC    vol(  0 ): 1.530E+15  Parms: SM      L1      
 Compute Stats, Diag. # 175  PRECON    vol(  0 ): 1.530E+15  Parms: SM      L1      
 Compute Stats, Diag. # 205  EVAP      vol(  0 ): 4.079E+15  Parms: SM      L1      
 Compute Stats, Diag. # 158  RADSWG    vol(  0 ): 7.648E+15  Parms: SM      L1      
 Compute Stats, Diag. # 334  ALBNIRDF  vol(  0 ): 5.099E+14  Parms: SM      L1      
 Compute Stats, Diag. # 332  ALBVISDF  vol(  0 ): 5.099E+14  Parms: SM      L1      
 Compute Stats, Diag. # 199  LWGDOWN   vol(  0 ): 4.079E+15  Parms: SM      L1      
 Compute Stats, Diag. # 189  LWGUP     vol(  0 ): 7.648E+15  Parms: SM      L1      
 Compute Stats, Diag. # 153  EFLUX     vol(  0 ): 4.079E+15  Parms: SM      L1      
 Compute Stats, Diag. # 152  HFLUX     vol(  0 ): 4.079E+15  Parms: SM      L1      
 Compute Stats, Diag. # 258  T2M       vol(  0 ): 4.079E+15  Parms: SM      M1      
 Compute Stats, Diag. # 259  Q2M       vol(  0 ): 4.079E+15  Parms: SM P    M1      
 Compute Stats, Diag. # 154  UFLUX     vol(  0 ): 4.079E+15  Parms: UM   155L1      
 Compute Stats, Diag. # 155  VFLUX     vol(  0 ): 4.079E+15  Parms: VM   154L1      
 Compute Stats, Diag. # 260  U10M      vol(  0 ): 4.079E+15  Parms: UM   261M1      
 Compute Stats, Diag. # 261  V10M      vol(  0 ): 4.079E+15  Parms: VM   260M1      
 Compute Stats, Diag. # 232  PS        vol(  0 ): 7.648E+15  Parms: SM      L1      
 Compute Stats, Diag. # 225  OSRCLR    vol(  0 ): 7.648E+15  Parms: SM      U1      
 Compute Stats, Diag. # 191  OLRCLR    vol(  0 ): 5.099E+14  Parms: SM      U1      
 Compute Stats, Diag. # 235  SWGCLR    vol(  0 ): 7.648E+15  Parms: SM      L1      
 Compute Stats, Diag. # 192  LWGCLR    vol(  0 ): 7.648E+15  Parms: SM      L1      
  Writing datetime file: NYMD =     20040321 NHMS =         3000
(PID.TID 0000.0001) %CHECKPOINT        15 ckptA
(PID.TID 0000.0001)  Seconds in section "ALL                    [THE_MODEL_MAIN]":
(PID.TID 0000.0001)          User time:   41.82999801635742
(PID.TID 0000.0001)        System time:   6.889999866485596
(PID.TID 0000.0001)    Wall clock time:   62.84310603141785
(PID.TID 0000.0001)         No. starts:           1
(PID.TID 0000.0001)          No. stops:           1
(PID.TID 0000.0001)  Seconds in section "INITIALISE_FIXED       [THE_MODEL_MAIN]":
(PID.TID 0000.0001)          User time:  0.5099999904632568
(PID.TID 0000.0001)        System time:  0.1099999994039536
(PID.TID 0000.0001)    Wall clock time:   1.145151853561401
(PID.TID 0000.0001)         No. starts:           1
(PID.TID 0000.0001)          No. stops:           1
(PID.TID 0000.0001)  Seconds in section "GRIDALT_INITIALISE  [PACKAGES_INIT_F]":
(PID.TID 0000.0001)          User time:  9.9999904632568359E-003
(PID.TID 0000.0001)        System time:  0.0000000000000000E+000
(PID.TID 0000.0001)    Wall clock time:  1.1945009231567383E-002
(PID.TID 0000.0001)         No. starts:           1
(PID.TID 0000.0001)          No. stops:           1
(PID.TID 0000.0001)  Seconds in section "THE_MAIN_LOOP          [THE_MODEL_MAIN]":
(PID.TID 0000.0001)          User time:   40.78999924659729
(PID.TID 0000.0001)        System time:   6.569999828934669
(PID.TID 0000.0001)    Wall clock time:   51.14794301986694
(PID.TID 0000.0001)         No. starts:           1
(PID.TID 0000.0001)          No. stops:           1
(PID.TID 0000.0001)  Seconds in section "INITIALISE_VARIA    [THE_MAIN_LOOP]":
(PID.TID 0000.0001)          User time:  0.2899999618530273
(PID.TID 0000.0001)        System time:  0.2600000053644180
(PID.TID 0000.0001)    Wall clock time:   1.050405979156494
(PID.TID 0000.0001)         No. starts:           1
(PID.TID 0000.0001)          No. stops:           1
(PID.TID 0000.0001)  Seconds in section "GRIDALT_UPDATE  [INITIALISE_VARIA]":
(PID.TID 0000.0001)          User time:  0.0000000000000000E+000
(PID.TID 0000.0001)        System time:  1.0000020265579224E-002
(PID.TID 0000.0001)    Wall clock time:  5.8228969573974609E-003
(PID.TID 0000.0001)         No. starts:           1
(PID.TID 0000.0001)          No. stops:           1
(PID.TID 0000.0001)  Seconds in section "MAIN LOOP           [THE_MAIN_LOOP]":
(PID.TID 0000.0001)          User time:   40.31999927759171
(PID.TID 0000.0001)        System time:   6.239999830722809
(PID.TID 0000.0001)    Wall clock time:   48.87020492553711
(PID.TID 0000.0001)         No. starts:           1
(PID.TID 0000.0001)          No. stops:           1
(PID.TID 0000.0001)  Seconds in section "FORWARD_STEP        [THE_MAIN_LOOP]":
(PID.TID 0000.0001)          User time:   40.31999927759171
(PID.TID 0000.0001)        System time:   6.239999830722809
(PID.TID 0000.0001)    Wall clock time:   48.86960601806641
(PID.TID 0000.0001)         No. starts:          15
(PID.TID 0000.0001)          No. stops:          15
(PID.TID 0000.0001)  Seconds in section "DO_STATEVARS_DIAGS  [FORWARD_STEP]":
(PID.TID 0000.0001)          User time:  1.0000228881835938E-002
(PID.TID 0000.0001)        System time:  0.0000000000000000E+000
(PID.TID 0000.0001)    Wall clock time:  5.2387714385986328E-003
(PID.TID 0000.0001)         No. starts:          45
(PID.TID 0000.0001)          No. stops:          45
(PID.TID 0000.0001)  Seconds in section "LOAD_FIELDS_DRIVER  [FORWARD_STEP]":
(PID.TID 0000.0001)          User time:  0.0000000000000000E+000
(PID.TID 0000.0001)        System time:  0.0000000000000000E+000
(PID.TID 0000.0001)    Wall clock time:  1.7409324645996094E-003
(PID.TID 0000.0001)         No. starts:          15
(PID.TID 0000.0001)          No. stops:          15
(PID.TID 0000.0001)  Seconds in section "EXTERNAL_FLDS_LOAD [LOAD_FLDS_DRIVER]":
(PID.TID 0000.0001)          User time:  0.0000000000000000E+000
(PID.TID 0000.0001)        System time:  0.0000000000000000E+000
(PID.TID 0000.0001)    Wall clock time:  6.0606002807617188E-004
(PID.TID 0000.0001)         No. starts:          15
(PID.TID 0000.0001)          No. stops:          15
(PID.TID 0000.0001)  Seconds in section "DO_ATMOSPHERIC_PHYS [FORWARD_STEP]":
(PID.TID 0000.0001)          User time:   28.96000057458878
(PID.TID 0000.0001)        System time:   5.399999678134918
(PID.TID 0000.0001)    Wall clock time:   35.30628585815430
(PID.TID 0000.0001)         No. starts:          15
(PID.TID 0000.0001)          No. stops:          15
(PID.TID 0000.0001)  Seconds in section "FIZHI          [DO_ATMOSPHERIC_PHYS]":
(PID.TID 0000.0001)          User time:   28.96000057458878
(PID.TID 0000.0001)        System time:   5.399999678134918
(PID.TID 0000.0001)    Wall clock time:   35.30508327484131
(PID.TID 0000.0001)         No. starts:          15
(PID.TID 0000.0001)          No. stops:          15
(PID.TID 0000.0001)  Seconds in section "DO_FIZHI          [FIZHI_WRAPPER]":
(PID.TID 0000.0001)          User time:   27.61000013351440
(PID.TID 0000.0001)        System time:   5.359999954700470
(PID.TID 0000.0001)    Wall clock time:   33.88520240783691
(PID.TID 0000.0001)         No. starts:          15
(PID.TID 0000.0001)          No. stops:          15
(PID.TID 0000.0001)  Seconds in section "PHYS2DYN          [FIZHI_WRAPPER]":
(PID.TID 0000.0001)          User time:  0.4799995422363281
(PID.TID 0000.0001)        System time:  9.9999904632568359E-003
(PID.TID 0000.0001)    Wall clock time:  0.5197229385375977
(PID.TID 0000.0001)         No. starts:          15
(PID.TID 0000.0001)          No. stops:          15
(PID.TID 0000.0001)  Seconds in section "ATOC              [FIZHI_WRAPPER]":
(PID.TID 0000.0001)          User time:  0.2500000000000000
(PID.TID 0000.0001)        System time:  0.0000000000000000E+000
(PID.TID 0000.0001)    Wall clock time:  0.2256302833557129
(PID.TID 0000.0001)         No. starts:          15
(PID.TID 0000.0001)          No. stops:          15
(PID.TID 0000.0001)  Seconds in section "EXCHANGES         [FIZHI_WRAPPER]":
(PID.TID 0000.0001)          User time:  0.3099975585937500
(PID.TID 0000.0001)        System time:  0.0000000000000000E+000
(PID.TID 0000.0001)    Wall clock time:  0.3167278766632080
(PID.TID 0000.0001)         No. starts:          15
(PID.TID 0000.0001)          No. stops:          15
(PID.TID 0000.0001)  Seconds in section "DO_OCEANIC_PHYS     [FORWARD_STEP]":
(PID.TID 0000.0001)          User time:  2.0000457763671875E-002
(PID.TID 0000.0001)        System time:  0.0000000000000000E+000
(PID.TID 0000.0001)    Wall clock time:  3.7540912628173828E-002
(PID.TID 0000.0001)         No. starts:          15
(PID.TID 0000.0001)          No. stops:          15
(PID.TID 0000.0001)  Seconds in section "DYNAMICS            [FORWARD_STEP]":
(PID.TID 0000.0001)          User time:   2.239995956420898
(PID.TID 0000.0001)        System time:  1.9999980926513672E-002
(PID.TID 0000.0001)    Wall clock time:   2.338364601135254
(PID.TID 0000.0001)         No. starts:          15
(PID.TID 0000.0001)          No. stops:          15
(PID.TID 0000.0001)  Seconds in section "UPDATE_R_STAR       [FORWARD_STEP]":
(PID.TID 0000.0001)          User time:  0.1600055694580078
(PID.TID 0000.0001)        System time:  1.0000228881835938E-002
(PID.TID 0000.0001)    Wall clock time:  0.1979544162750244
(PID.TID 0000.0001)         No. starts:          15
(PID.TID 0000.0001)          No. stops:          15
(PID.TID 0000.0001)  Seconds in section "UPDATE_CG2D         [FORWARD_STEP]":
(PID.TID 0000.0001)          User time:  8.9996337890625000E-002
(PID.TID 0000.0001)        System time:  0.0000000000000000E+000
(PID.TID 0000.0001)    Wall clock time:  6.2905788421630859E-002
(PID.TID 0000.0001)         No. starts:          15
(PID.TID 0000.0001)          No. stops:          15
(PID.TID 0000.0001)  Seconds in section "SOLVE_FOR_PRESSURE  [FORWARD_STEP]":
(PID.TID 0000.0001)          User time:  0.1599941253662109
(PID.TID 0000.0001)        System time:  0.0000000000000000E+000
(PID.TID 0000.0001)    Wall clock time:  0.1563100814819336
(PID.TID 0000.0001)         No. starts:          15
(PID.TID 0000.0001)          No. stops:          15
(PID.TID 0000.0001)  Seconds in section "MOM_CORRECTION_STEP [FORWARD_STEP]":
(PID.TID 0000.0001)          User time:   1.730005264282227
(PID.TID 0000.0001)        System time:  1.9999980926513672E-002
(PID.TID 0000.0001)    Wall clock time:   1.923631429672241
(PID.TID 0000.0001)         No. starts:          15
(PID.TID 0000.0001)          No. stops:          15
(PID.TID 0000.0001)  Seconds in section "SHAP_FILT_UV       [MOM_CORR_STEP]":
(PID.TID 0000.0001)          User time:   1.610002517700195
(PID.TID 0000.0001)        System time:  1.9999980926513672E-002
(PID.TID 0000.0001)    Wall clock time:   1.719433546066284
(PID.TID 0000.0001)         No. starts:          15
(PID.TID 0000.0001)          No. stops:          15
(PID.TID 0000.0001)  Seconds in section "UPDATE_ETAH         [FORWARD_STEP]":
(PID.TID 0000.0001)          User time:  0.0000000000000000E+000
(PID.TID 0000.0001)        System time:  0.0000000000000000E+000
(PID.TID 0000.0001)    Wall clock time:  1.5125274658203125E-003
(PID.TID 0000.0001)         No. starts:          15
(PID.TID 0000.0001)          No. stops:          15
(PID.TID 0000.0001)  Seconds in section "CALC_R_STAR         [FORWARD_STEP]":
(PID.TID 0000.0001)          User time:  7.0005416870117188E-002
(PID.TID 0000.0001)        System time:  0.0000000000000000E+000
(PID.TID 0000.0001)    Wall clock time:  3.1329154968261719E-002
(PID.TID 0000.0001)         No. starts:          15
(PID.TID 0000.0001)          No. stops:          15
(PID.TID 0000.0001)  Seconds in section "BLOCKING_EXCHANGES  [FORWARD_STEP]":
(PID.TID 0000.0001)          User time:  0.3399944305419922
(PID.TID 0000.0001)        System time:  0.0000000000000000E+000
(PID.TID 0000.0001)    Wall clock time:  0.3786599636077881
(PID.TID 0000.0001)         No. starts:          30
(PID.TID 0000.0001)          No. stops:          30
(PID.TID 0000.0001)  Seconds in section "THERMODYNAMICS      [FORWARD_STEP]":
(PID.TID 0000.0001)          User time:  0.8599987030029297
(PID.TID 0000.0001)        System time:  1.9999980926513672E-002
(PID.TID 0000.0001)    Wall clock time:  0.9353075027465820
(PID.TID 0000.0001)         No. starts:          15
(PID.TID 0000.0001)          No. stops:          15
(PID.TID 0000.0001)  Seconds in section "TRC_CORRECTION_STEP [FORWARD_STEP]":
(PID.TID 0000.0001)          User time:  0.8199996948242188
(PID.TID 0000.0001)        System time:  1.9999980926513672E-002
(PID.TID 0000.0001)    Wall clock time:  0.8285541534423828
(PID.TID 0000.0001)         No. starts:          15
(PID.TID 0000.0001)          No. stops:          15
(PID.TID 0000.0001)  Seconds in section "SHAP_FILT_TS       [TRC_CORR_STEP]":
(PID.TID 0000.0001)          User time:  0.7700023651123047
(PID.TID 0000.0001)        System time:  1.9999980926513672E-002
(PID.TID 0000.0001)    Wall clock time:  0.7889132499694824
(PID.TID 0000.0001)         No. starts:          15
(PID.TID 0000.0001)          No. stops:          15
(PID.TID 0000.0001)  Seconds in section "FIZHI               [FORWARD_STEP]":
(PID.TID 0000.0001)          User time:   2.319997787475586
(PID.TID 0000.0001)        System time:  0.3599996566772461
(PID.TID 0000.0001)    Wall clock time:   2.680973529815674
(PID.TID 0000.0001)         No. starts:          15
(PID.TID 0000.0001)          No. stops:          15
(PID.TID 0000.0001)  Seconds in section "PHYS2DYN          [STEP_FIZHI_CORR]":
(PID.TID 0000.0001)          User time:  0.4399929046630859
(PID.TID 0000.0001)        System time:  9.9999904632568359E-003
(PID.TID 0000.0001)    Wall clock time:  0.4802289009094238
(PID.TID 0000.0001)         No. starts:          15
(PID.TID 0000.0001)          No. stops:          15
(PID.TID 0000.0001)  Seconds in section "ATOC              [STEP_FIZHI_CORR]":
(PID.TID 0000.0001)          User time:  0.2600002288818359
(PID.TID 0000.0001)        System time:  9.9997520446777344E-003
(PID.TID 0000.0001)    Wall clock time:  0.2300593852996826
(PID.TID 0000.0001)         No. starts:          15
(PID.TID 0000.0001)          No. stops:          15
(PID.TID 0000.0001)  Seconds in section "CTOA              [STEP_FIZHI_CORR]":
(PID.TID 0000.0001)          User time:  0.3000049591064453
(PID.TID 0000.0001)        System time:  0.0000000000000000E+000
(PID.TID 0000.0001)    Wall clock time:  0.3034904003143311
(PID.TID 0000.0001)         No. starts:          15
(PID.TID 0000.0001)          No. stops:          15
(PID.TID 0000.0001)  Seconds in section "DYN2PHYS          [STEP_FIZHI_CORR]":
(PID.TID 0000.0001)          User time:   1.009996414184570
(PID.TID 0000.0001)        System time:  0.3199994564056396
(PID.TID 0000.0001)    Wall clock time:   1.306975364685059
(PID.TID 0000.0001)         No. starts:          15
(PID.TID 0000.0001)          No. stops:          15
(PID.TID 0000.0001)  Seconds in section "DO_STATEVARS_TAVE   [FORWARD_STEP]":
(PID.TID 0000.0001)          User time:  0.0000000000000000E+000
(PID.TID 0000.0001)        System time:  0.0000000000000000E+000
(PID.TID 0000.0001)    Wall clock time:  6.5135955810546875E-004
(PID.TID 0000.0001)         No. starts:          15
(PID.TID 0000.0001)          No. stops:          15
(PID.TID 0000.0001)  Seconds in section "MONITOR             [FORWARD_STEP]":
(PID.TID 0000.0001)          User time:  0.7200031280517578
(PID.TID 0000.0001)        System time:  1.0000228881835938E-002
(PID.TID 0000.0001)    Wall clock time:  0.7926673889160156
(PID.TID 0000.0001)         No. starts:          15
(PID.TID 0000.0001)          No. stops:          15
(PID.TID 0000.0001)  Seconds in section "DO_THE_MODEL_IO     [FORWARD_STEP]":
(PID.TID 0000.0001)          User time:   1.789999008178711
(PID.TID 0000.0001)        System time:  0.3800001144409180
(PID.TID 0000.0001)    Wall clock time:   3.143691778182983
(PID.TID 0000.0001)         No. starts:          15
(PID.TID 0000.0001)          No. stops:          15
(PID.TID 0000.0001)  Seconds in section "WRITE_CHECKPOINT    [FORWARD_STEP]":
(PID.TID 0000.0001)          User time:  0.0000000000000000E+000
(PID.TID 0000.0001)        System time:  0.0000000000000000E+000
(PID.TID 0000.0001)    Wall clock time:  5.8054924011230469E-004
(PID.TID 0000.0001)         No. starts:          15
(PID.TID 0000.0001)          No. stops:          15
(PID.TID 0000.0001)  Seconds in section "WRITE_CHECKPOINT       [THE_MODEL_MAIN]":
(PID.TID 0000.0001)          User time:  0.5299987792968750
(PID.TID 0000.0001)        System time:  0.2100000381469727
(PID.TID 0000.0001)    Wall clock time:   10.54984307289124
(PID.TID 0000.0001)         No. starts:           1
(PID.TID 0000.0001)          No. stops:           1
(PID.TID 0000.0001) // ======================================================
(PID.TID 0000.0001) // Tile <-> Tile communication statistics
(PID.TID 0000.0001) // ======================================================
(PID.TID 0000.0001) // o Tile number: 000001
(PID.TID 0000.0001) //         No. X exchanges =              0
(PID.TID 0000.0001) //            Max. X spins =              0
(PID.TID 0000.0001) //            Min. X spins =     1000000000
(PID.TID 0000.0001) //          Total. X spins =              0
(PID.TID 0000.0001) //            Avg. X spins =       0.00E+00
(PID.TID 0000.0001) //         No. Y exchanges =              0
(PID.TID 0000.0001) //            Max. Y spins =              0
(PID.TID 0000.0001) //            Min. Y spins =     1000000000
(PID.TID 0000.0001) //          Total. Y spins =              0
(PID.TID 0000.0001) //            Avg. Y spins =       0.00E+00
(PID.TID 0000.0001) // o Tile number: 000002
(PID.TID 0000.0001) //         No. X exchanges =              0
(PID.TID 0000.0001) //            Max. X spins =              0
(PID.TID 0000.0001) //            Min. X spins =     1000000000
(PID.TID 0000.0001) //          Total. X spins =              0
(PID.TID 0000.0001) //            Avg. X spins =       0.00E+00
(PID.TID 0000.0001) //         No. Y exchanges =              0
(PID.TID 0000.0001) //            Max. Y spins =              0
(PID.TID 0000.0001) //            Min. Y spins =     1000000000
(PID.TID 0000.0001) //          Total. Y spins =              0
(PID.TID 0000.0001) //            Avg. Y spins =       0.00E+00
(PID.TID 0000.0001) // o Tile number: 000003
(PID.TID 0000.0001) //         No. X exchanges =              0
(PID.TID 0000.0001) //            Max. X spins =              0
(PID.TID 0000.0001) //            Min. X spins =     1000000000
(PID.TID 0000.0001) //          Total. X spins =              0
(PID.TID 0000.0001) //            Avg. X spins =       0.00E+00
(PID.TID 0000.0001) //         No. Y exchanges =              0
(PID.TID 0000.0001) //            Max. Y spins =              0
(PID.TID 0000.0001) //            Min. Y spins =     1000000000
(PID.TID 0000.0001) //          Total. Y spins =              0
(PID.TID 0000.0001) //            Avg. Y spins =       0.00E+00
(PID.TID 0000.0001) // o Tile number: 000004
(PID.TID 0000.0001) //         No. X exchanges =              0
(PID.TID 0000.0001) //            Max. X spins =              0
(PID.TID 0000.0001) //            Min. X spins =     1000000000
(PID.TID 0000.0001) //          Total. X spins =              0
(PID.TID 0000.0001) //            Avg. X spins =       0.00E+00
(PID.TID 0000.0001) //         No. Y exchanges =              0
(PID.TID 0000.0001) //            Max. Y spins =              0
(PID.TID 0000.0001) //            Min. Y spins =     1000000000
(PID.TID 0000.0001) //          Total. Y spins =              0
(PID.TID 0000.0001) //            Avg. Y spins =       0.00E+00
(PID.TID 0000.0001) // o Tile number: 000005
(PID.TID 0000.0001) //         No. X exchanges =              0
(PID.TID 0000.0001) //            Max. X spins =              0
(PID.TID 0000.0001) //            Min. X spins =     1000000000
(PID.TID 0000.0001) //          Total. X spins =              0
(PID.TID 0000.0001) //            Avg. X spins =       0.00E+00
(PID.TID 0000.0001) //         No. Y exchanges =              0
(PID.TID 0000.0001) //            Max. Y spins =              0
(PID.TID 0000.0001) //            Min. Y spins =     1000000000
(PID.TID 0000.0001) //          Total. Y spins =              0
(PID.TID 0000.0001) //            Avg. Y spins =       0.00E+00
(PID.TID 0000.0001) // o Tile number: 000006
(PID.TID 0000.0001) //         No. X exchanges =              0
(PID.TID 0000.0001) //            Max. X spins =              0
(PID.TID 0000.0001) //            Min. X spins =     1000000000
(PID.TID 0000.0001) //          Total. X spins =              0
(PID.TID 0000.0001) //            Avg. X spins =       0.00E+00
(PID.TID 0000.0001) //         No. Y exchanges =              0
(PID.TID 0000.0001) //            Max. Y spins =              0
(PID.TID 0000.0001) //            Min. Y spins =     1000000000
(PID.TID 0000.0001) //          Total. Y spins =              0
(PID.TID 0000.0001) //            Avg. Y spins =       0.00E+00
(PID.TID 0000.0001) // o Thread number: 000001
(PID.TID 0000.0001) //            No. barriers =          10172
(PID.TID 0000.0001) //      Max. barrier spins =              1
(PID.TID 0000.0001) //      Min. barrier spins =              1
(PID.TID 0000.0001) //     Total barrier spins =          10172
(PID.TID 0000.0001) //      Avg. barrier spins =       1.00E+00
