(PID.TID 0000.0001) 
(PID.TID 0000.0001) // ======================================================
(PID.TID 0000.0001) //                      MITgcm UV
(PID.TID 0000.0001) //                      =========
(PID.TID 0000.0001) // ======================================================
(PID.TID 0000.0001) // execution environment starting up...
(PID.TID 0000.0001) 
(PID.TID 0000.0001) // MITgcmUV version:  checkpoint59c
(PID.TID 0000.0001) // Build user:        jmc
(PID.TID 0000.0001) // Build host:        faulks
(PID.TID 0000.0001) // Build date:        Tue Jun 12 20:02:55 EDT 2007
(PID.TID 0000.0001) 
(PID.TID 0000.0001) // =======================================================
(PID.TID 0000.0001) // Execution Environment parameter file "eedata"
(PID.TID 0000.0001) // =======================================================
(PID.TID 0000.0001) ># Example "eedata" file
(PID.TID 0000.0001) ># Lines beginning "#" are comments
(PID.TID 0000.0001) ># nTx - No. threads per process in X
(PID.TID 0000.0001) ># nTy - No. threads per process in Y
(PID.TID 0000.0001) > &EEPARMS
(PID.TID 0000.0001) > useCubedSphereExchange=.TRUE.,
(PID.TID 0000.0001) ># unlimit the stack size for the FIZHI rad code
(PID.TID 0000.0001) >#EH3  useSETRLSTK is commented out (default: false) since, with the g77
(PID.TID 0000.0001) >#EH3  compiler, it causes the model to hang *without* returning -- thus
(PID.TID 0000.0001) >#EH3  killing all our automated g77 testing on, for instance, the ACES
(PID.TID 0000.0001) >#EH3  cluster.
(PID.TID 0000.0001) >#EH3  useSETRLSTK=.TRUE.,
(PID.TID 0000.0001) ># Activate one line below to support 2, 3 or 6 way multi-threading
(PID.TID 0000.0001) >#nTx=2,
(PID.TID 0000.0001) >#nTx=3,
(PID.TID 0000.0001) >#nTx=6,
(PID.TID 0000.0001) > &
(PID.TID 0000.0001) ># Note: Some systems use & as the
(PID.TID 0000.0001) ># namelist terminator. Other systems
(PID.TID 0000.0001) ># use a / character (as shown here).
(PID.TID 0000.0001) 
(PID.TID 0000.0001) // =======================================================
(PID.TID 0000.0001) // Computational Grid Specification ( see files "SIZE.h" )
(PID.TID 0000.0001) //                                  ( and "eedata"       )
(PID.TID 0000.0001) // =======================================================
(PID.TID 0000.0001)      nPx =    1 ; /* No. processes in X */
(PID.TID 0000.0001)      nPy =    1 ; /* No. processes in Y */
(PID.TID 0000.0001)      nSx =    6 ; /* No. tiles in X per process */
(PID.TID 0000.0001)      nSy =    1 ; /* No. tiles in Y per process */
(PID.TID 0000.0001)      sNx =   32 ; /* Tile size in X */
(PID.TID 0000.0001)      sNy =   32 ; /* Tile size in Y */
(PID.TID 0000.0001)      OLx =    2 ; /* Tile overlap distance in X */
(PID.TID 0000.0001)      OLy =    2 ; /* Tile overlap distance in Y */
(PID.TID 0000.0001)      nTx =    1 ; /* No. threads in X per process */
(PID.TID 0000.0001)      nTy =    1 ; /* No. threads in Y per process */
(PID.TID 0000.0001)       Nr =   20 ; /* No. levels in the vertical   */
(PID.TID 0000.0001)       nX =  192 ; /* Total domain size in X ( = nPx*nSx*sNx ) */
(PID.TID 0000.0001)       nY =   32 ; /* Total domain size in Y ( = nPy*nSy*sNy ) */
(PID.TID 0000.0001)   nTiles =    6 ; /* Total no. tiles per process ( = nSx*nSy ) */
(PID.TID 0000.0001)   nProcs =    1 ; /* Total no. processes ( = nPx*nPy ) */
(PID.TID 0000.0001) nThreads =    1 ; /* Total no. threads per process ( = nTx*nTy ) */
(PID.TID 0000.0001) usingMPI =    F ; /* Flag used to control whether MPI is in use */
(PID.TID 0000.0001)                   /*  note: To execute a program with MPI calls */
(PID.TID 0000.0001)                   /*  it must be launched appropriately e.g     */
(PID.TID 0000.0001)                   /*  "mpirun -np 64 ......"                    */
(PID.TID 0000.0001) useCoupler=   F ; /* Flag used to control communications with */
(PID.TID 0000.0001)                   /*  other model components, through a coupler */
(PID.TID 0000.0001) 
(PID.TID 0000.0001) // ======================================================
(PID.TID 0000.0001) // Mapping of tiles to threads
(PID.TID 0000.0001) // ======================================================
(PID.TID 0000.0001) // -o- Thread   1, tiles (   1:   6,   1:   1)
(PID.TID 0000.0001) 
(PID.TID 0000.0001) // ======================================================
(PID.TID 0000.0001) // Tile <-> Tile connectvity table
(PID.TID 0000.0001) // ======================================================
(PID.TID 0000.0001) // Tile number: 000001 (process no. = 000001)
(PID.TID 0000.0001) //        WEST: Tile = 000006, Process = 000001, Comm = put
(PID.TID 0000.0001) //                bi = 000006, bj = 000001
(PID.TID 0000.0001) //        EAST: Tile = 000002, Process = 000001, Comm = put
(PID.TID 0000.0001) //                bi = 000002, bj = 000001
(PID.TID 0000.0001) //       SOUTH: Tile = 000001, Process = 000001, Comm = put
(PID.TID 0000.0001) //                bi = 000001, bj = 000001
(PID.TID 0000.0001) //       NORTH: Tile = 000001, Process = 000001, Comm = put
(PID.TID 0000.0001) //                bi = 000001, bj = 000001
(PID.TID 0000.0001) // Tile number: 000002 (process no. = 000001)
(PID.TID 0000.0001) //        WEST: Tile = 000001, Process = 000001, Comm = put
(PID.TID 0000.0001) //                bi = 000001, bj = 000001
(PID.TID 0000.0001) //        EAST: Tile = 000003, Process = 000001, Comm = put
(PID.TID 0000.0001) //                bi = 000003, bj = 000001
(PID.TID 0000.0001) //       SOUTH: Tile = 000002, Process = 000001, Comm = put
(PID.TID 0000.0001) //                bi = 000002, bj = 000001
(PID.TID 0000.0001) //       NORTH: Tile = 000002, Process = 000001, Comm = put
(PID.TID 0000.0001) //                bi = 000002, bj = 000001
(PID.TID 0000.0001) // Tile number: 000003 (process no. = 000001)
(PID.TID 0000.0001) //        WEST: Tile = 000002, Process = 000001, Comm = put
(PID.TID 0000.0001) //                bi = 000002, bj = 000001
(PID.TID 0000.0001) //        EAST: Tile = 000004, Process = 000001, Comm = put
(PID.TID 0000.0001) //                bi = 000004, bj = 000001
(PID.TID 0000.0001) //       SOUTH: Tile = 000003, Process = 000001, Comm = put
(PID.TID 0000.0001) //                bi = 000003, bj = 000001
(PID.TID 0000.0001) //       NORTH: Tile = 000003, Process = 000001, Comm = put
(PID.TID 0000.0001) //                bi = 000003, bj = 000001
(PID.TID 0000.0001) // Tile number: 000004 (process no. = 000001)
(PID.TID 0000.0001) //        WEST: Tile = 000003, Process = 000001, Comm = put
(PID.TID 0000.0001) //                bi = 000003, bj = 000001
(PID.TID 0000.0001) //        EAST: Tile = 000005, Process = 000001, Comm = put
(PID.TID 0000.0001) //                bi = 000005, bj = 000001
(PID.TID 0000.0001) //       SOUTH: Tile = 000004, Process = 000001, Comm = put
(PID.TID 0000.0001) //                bi = 000004, bj = 000001
(PID.TID 0000.0001) //       NORTH: Tile = 000004, Process = 000001, Comm = put
(PID.TID 0000.0001) //                bi = 000004, bj = 000001
(PID.TID 0000.0001) // Tile number: 000005 (process no. = 000001)
(PID.TID 0000.0001) //        WEST: Tile = 000004, Process = 000001, Comm = put
(PID.TID 0000.0001) //                bi = 000004, bj = 000001
(PID.TID 0000.0001) //        EAST: Tile = 000006, Process = 000001, Comm = put
(PID.TID 0000.0001) //                bi = 000006, bj = 000001
(PID.TID 0000.0001) //       SOUTH: Tile = 000005, Process = 000001, Comm = put
(PID.TID 0000.0001) //                bi = 000005, bj = 000001
(PID.TID 0000.0001) //       NORTH: Tile = 000005, Process = 000001, Comm = put
(PID.TID 0000.0001) //                bi = 000005, bj = 000001
(PID.TID 0000.0001) // Tile number: 000006 (process no. = 000001)
(PID.TID 0000.0001) //        WEST: Tile = 000005, Process = 000001, Comm = put
(PID.TID 0000.0001) //                bi = 000005, bj = 000001
(PID.TID 0000.0001) //        EAST: Tile = 000001, Process = 000001, Comm = put
(PID.TID 0000.0001) //                bi = 000001, bj = 000001
(PID.TID 0000.0001) //       SOUTH: Tile = 000006, Process = 000001, Comm = put
(PID.TID 0000.0001) //                bi = 000006, bj = 000001
(PID.TID 0000.0001) //       NORTH: Tile = 000006, Process = 000001, Comm = put
(PID.TID 0000.0001) //                bi = 000006, bj = 000001
(PID.TID 0000.0001) 
(PID.TID 0000.0001) ===== W2 TILE TOPLOGY =====
(PID.TID 0000.0001)  TILE:    1
(PID.TID 0000.0001)       NEIGHBOUR    1 = TILE    3 Comm = PUT ( PROC =    1)
(PID.TID 0000.0001)       NEIGHBOUR    2 = TILE    6 Comm = PUT ( PROC =    1)
(PID.TID 0000.0001)       NEIGHBOUR    3 = TILE    2 Comm = PUT ( PROC =    1)
(PID.TID 0000.0001)       NEIGHBOUR    4 = TILE    5 Comm = PUT ( PROC =    1)
(PID.TID 0000.0001)  TILE:    2
(PID.TID 0000.0001)       NEIGHBOUR    1 = TILE    3 Comm = PUT ( PROC =    1)
(PID.TID 0000.0001)       NEIGHBOUR    2 = TILE    6 Comm = PUT ( PROC =    1)
(PID.TID 0000.0001)       NEIGHBOUR    3 = TILE    4 Comm = PUT ( PROC =    1)
(PID.TID 0000.0001)       NEIGHBOUR    4 = TILE    1 Comm = PUT ( PROC =    1)
(PID.TID 0000.0001)  TILE:    3
(PID.TID 0000.0001)       NEIGHBOUR    1 = TILE    5 Comm = PUT ( PROC =    1)
(PID.TID 0000.0001)       NEIGHBOUR    2 = TILE    2 Comm = PUT ( PROC =    1)
(PID.TID 0000.0001)       NEIGHBOUR    3 = TILE    4 Comm = PUT ( PROC =    1)
(PID.TID 0000.0001)       NEIGHBOUR    4 = TILE    1 Comm = PUT ( PROC =    1)
(PID.TID 0000.0001)  TILE:    4
(PID.TID 0000.0001)       NEIGHBOUR    1 = TILE    5 Comm = PUT ( PROC =    1)
(PID.TID 0000.0001)       NEIGHBOUR    2 = TILE    2 Comm = PUT ( PROC =    1)
(PID.TID 0000.0001)       NEIGHBOUR    3 = TILE    6 Comm = PUT ( PROC =    1)
(PID.TID 0000.0001)       NEIGHBOUR    4 = TILE    3 Comm = PUT ( PROC =    1)
(PID.TID 0000.0001)  TILE:    5
(PID.TID 0000.0001)       NEIGHBOUR    1 = TILE    1 Comm = PUT ( PROC =    1)
(PID.TID 0000.0001)       NEIGHBOUR    2 = TILE    4 Comm = PUT ( PROC =    1)
(PID.TID 0000.0001)       NEIGHBOUR    3 = TILE    6 Comm = PUT ( PROC =    1)
(PID.TID 0000.0001)       NEIGHBOUR    4 = TILE    3 Comm = PUT ( PROC =    1)
(PID.TID 0000.0001)  TILE:    6
(PID.TID 0000.0001)       NEIGHBOUR    1 = TILE    1 Comm = PUT ( PROC =    1)
(PID.TID 0000.0001)       NEIGHBOUR    2 = TILE    4 Comm = PUT ( PROC =    1)
(PID.TID 0000.0001)       NEIGHBOUR    3 = TILE    2 Comm = PUT ( PROC =    1)
(PID.TID 0000.0001)       NEIGHBOUR    4 = TILE    5 Comm = PUT ( PROC =    1)
(PID.TID 0000.0001) Tile    1(proc =   1) sends points i=  34:  -1, j=  31:  32
(PID.TID 0000.0001)                          to points i=  -1:   0, j=  -1:  34 in tile    3(proc =   1)
(PID.TID 0000.0001) Tile    1(proc =   1) sends points i=  -1:  34, j=   1:   2
(PID.TID 0000.0001)                          to points i=  -1:  34, j=  33:  34 in tile    6(proc =   1)
(PID.TID 0000.0001) Tile    1(proc =   1) sends points i=  31:  32, j=  -1:  34
(PID.TID 0000.0001)                          to points i=  -1:   0, j=  -1:  34 in tile    2(proc =   1)
(PID.TID 0000.0001) Tile    1(proc =   1) sends points i=   1:   2, j=  34:  -1
(PID.TID 0000.0001)                          to points i=  -1:  34, j=  33:  34 in tile    5(proc =   1)
(PID.TID 0000.0001) Tile    2(proc =   1) sends points i=  -1:  34, j=  31:  32
(PID.TID 0000.0001)                          to points i=  -1:  34, j=  -1:   0 in tile    3(proc =   1)
(PID.TID 0000.0001) Tile    2(proc =   1) sends points i=  34:  -1, j=   1:   2
(PID.TID 0000.0001)                          to points i=  33:  34, j=  -1:  34 in tile    6(proc =   1)
(PID.TID 0000.0001) Tile    2(proc =   1) sends points i=  31:  32, j=  34:  -1
(PID.TID 0000.0001)                          to points i=  -1:  34, j=  -1:   0 in tile    4(proc =   1)
(PID.TID 0000.0001) Tile    2(proc =   1) sends points i=   1:   2, j=  -1:  34
(PID.TID 0000.0001)                          to points i=  33:  34, j=  -1:  34 in tile    1(proc =   1)
(PID.TID 0000.0001) Tile    3(proc =   1) sends points i=  34:  -1, j=  31:  32
(PID.TID 0000.0001)                          to points i=  -1:   0, j=  -1:  34 in tile    5(proc =   1)
(PID.TID 0000.0001) Tile    3(proc =   1) sends points i=  -1:  34, j=   1:   2
(PID.TID 0000.0001)                          to points i=  -1:  34, j=  33:  34 in tile    2(proc =   1)
(PID.TID 0000.0001) Tile    3(proc =   1) sends points i=  31:  32, j=  -1:  34
(PID.TID 0000.0001)                          to points i=  -1:   0, j=  -1:  34 in tile    4(proc =   1)
(PID.TID 0000.0001) Tile    3(proc =   1) sends points i=   1:   2, j=  34:  -1
(PID.TID 0000.0001)                          to points i=  -1:  34, j=  33:  34 in tile    1(proc =   1)
(PID.TID 0000.0001) Tile    4(proc =   1) sends points i=  -1:  34, j=  31:  32
(PID.TID 0000.0001)                          to points i=  -1:  34, j=  -1:   0 in tile    5(proc =   1)
(PID.TID 0000.0001) Tile    4(proc =   1) sends points i=  34:  -1, j=   1:   2
(PID.TID 0000.0001)                          to points i=  33:  34, j=  -1:  34 in tile    2(proc =   1)
(PID.TID 0000.0001) Tile    4(proc =   1) sends points i=  31:  32, j=  34:  -1
(PID.TID 0000.0001)                          to points i=  -1:  34, j=  -1:   0 in tile    6(proc =   1)
(PID.TID 0000.0001) Tile    4(proc =   1) sends points i=   1:   2, j=  -1:  34
(PID.TID 0000.0001)                          to points i=  33:  34, j=  -1:  34 in tile    3(proc =   1)
(PID.TID 0000.0001) Tile    5(proc =   1) sends points i=  34:  -1, j=  31:  32
(PID.TID 0000.0001)                          to points i=  -1:   0, j=  -1:  34 in tile    1(proc =   1)
(PID.TID 0000.0001) Tile    5(proc =   1) sends points i=  -1:  34, j=   1:   2
(PID.TID 0000.0001)                          to points i=  -1:  34, j=  33:  34 in tile    4(proc =   1)
(PID.TID 0000.0001) Tile    5(proc =   1) sends points i=  31:  32, j=  -1:  34
(PID.TID 0000.0001)                          to points i=  -1:   0, j=  -1:  34 in tile    6(proc =   1)
(PID.TID 0000.0001) Tile    5(proc =   1) sends points i=   1:   2, j=  34:  -1
(PID.TID 0000.0001)                          to points i=  -1:  34, j=  33:  34 in tile    3(proc =   1)
(PID.TID 0000.0001) Tile    6(proc =   1) sends points i=  -1:  34, j=  31:  32
(PID.TID 0000.0001)                          to points i=  -1:  34, j=  -1:   0 in tile    1(proc =   1)
(PID.TID 0000.0001) Tile    6(proc =   1) sends points i=  34:  -1, j=   1:   2
(PID.TID 0000.0001)                          to points i=  33:  34, j=  -1:  34 in tile    4(proc =   1)
(PID.TID 0000.0001) Tile    6(proc =   1) sends points i=  31:  32, j=  34:  -1
(PID.TID 0000.0001)                          to points i=  -1:  34, j=  -1:   0 in tile    2(proc =   1)
(PID.TID 0000.0001) Tile    6(proc =   1) sends points i=   1:   2, j=  -1:  34
(PID.TID 0000.0001)                          to points i=  33:  34, j=  -1:  34 in tile    5(proc =   1)
(PID.TID 0000.0001) Tile    1(proc =   1)recv to points i=  -1:  34, j=  33:  34from tile   3(proc =   1)
(PID.TID 0000.0001) Tile    1(proc =   1)recv to points i=  -1:  34, j=  -1:   0from tile   6(proc =   1)
(PID.TID 0000.0001) Tile    1(proc =   1)recv to points i=  33:  34, j=  -1:  34from tile   2(proc =   1)
(PID.TID 0000.0001) Tile    1(proc =   1)recv to points i=  -1:   0, j=  -1:  34from tile   5(proc =   1)
(PID.TID 0000.0001) Tile    2(proc =   1)recv to points i=  -1:  34, j=  33:  34from tile   3(proc =   1)
(PID.TID 0000.0001) Tile    2(proc =   1)recv to points i=  -1:  34, j=  -1:   0from tile   6(proc =   1)
(PID.TID 0000.0001) Tile    2(proc =   1)recv to points i=  33:  34, j=  -1:  34from tile   4(proc =   1)
(PID.TID 0000.0001) Tile    2(proc =   1)recv to points i=  -1:   0, j=  -1:  34from tile   1(proc =   1)
(PID.TID 0000.0001) Tile    3(proc =   1)recv to points i=  -1:  34, j=  33:  34from tile   5(proc =   1)
(PID.TID 0000.0001) Tile    3(proc =   1)recv to points i=  -1:  34, j=  -1:   0from tile   2(proc =   1)
(PID.TID 0000.0001) Tile    3(proc =   1)recv to points i=  33:  34, j=  -1:  34from tile   4(proc =   1)
(PID.TID 0000.0001) Tile    3(proc =   1)recv to points i=  -1:   0, j=  -1:  34from tile   1(proc =   1)
(PID.TID 0000.0001) Tile    4(proc =   1)recv to points i=  -1:  34, j=  33:  34from tile   5(proc =   1)
(PID.TID 0000.0001) Tile    4(proc =   1)recv to points i=  -1:  34, j=  -1:   0from tile   2(proc =   1)
(PID.TID 0000.0001) Tile    4(proc =   1)recv to points i=  33:  34, j=  -1:  34from tile   6(proc =   1)
(PID.TID 0000.0001) Tile    4(proc =   1)recv to points i=  -1:   0, j=  -1:  34from tile   3(proc =   1)
(PID.TID 0000.0001) Tile    5(proc =   1)recv to points i=  -1:  34, j=  33:  34from tile   1(proc =   1)
(PID.TID 0000.0001) Tile    5(proc =   1)recv to points i=  -1:  34, j=  -1:   0from tile   4(proc =   1)
(PID.TID 0000.0001) Tile    5(proc =   1)recv to points i=  33:  34, j=  -1:  34from tile   6(proc =   1)
(PID.TID 0000.0001) Tile    5(proc =   1)recv to points i=  -1:   0, j=  -1:  34from tile   3(proc =   1)
(PID.TID 0000.0001) Tile    6(proc =   1)recv to points i=  -1:  34, j=  33:  34from tile   1(proc =   1)
(PID.TID 0000.0001) Tile    6(proc =   1)recv to points i=  -1:  34, j=  -1:   0from tile   4(proc =   1)
(PID.TID 0000.0001) Tile    6(proc =   1)recv to points i=  33:  34, j=  -1:  34from tile   2(proc =   1)
(PID.TID 0000.0001) Tile    6(proc =   1)recv to points i=  -1:   0, j=  -1:  34from tile   5(proc =   1)
(PID.TID 0000.0001) // =======================================================
(PID.TID 0000.0001) // Model parameter file "data"
(PID.TID 0000.0001) // =======================================================
(PID.TID 0000.0001) ># ====================
(PID.TID 0000.0001) ># | Model parameters |
(PID.TID 0000.0001) ># ====================
(PID.TID 0000.0001) >#
(PID.TID 0000.0001) ># Continuous equation parameters
(PID.TID 0000.0001) > &PARM01
(PID.TID 0000.0001) >#tRef=288.8,292.7,298.1,303.8,309.8,316.2,323.2,332.5,356.1,437.4,
(PID.TID 0000.0001) > tRef=286.0,288.0,290.0,292.0,295.0,298.0,301.0,304.0,307.0,310.0,
(PID.TID 0000.0001) >      313.0,316.0,319.5,323.0,327.5,332.0,343.0,356.0,396.0,440.0,
(PID.TID 0000.0001) >#sRef=1.0E-3,5.0E-4,1.E-4,5*1.E-6,1.E-8,1.E-9,
(PID.TID 0000.0001) > sRef=20*0.0,
(PID.TID 0000.0001) > viscAr=0.E1,
(PID.TID 0000.0001) > viscAh=0.E6,
(PID.TID 0000.0001) > viscA4=0.E17,
(PID.TID 0000.0001) > no_slip_sides=.FALSE.,
(PID.TID 0000.0001) > no_slip_bottom=.FALSE.,
(PID.TID 0000.0001) > diffKhT=0.E3,
(PID.TID 0000.0001) > diffKrT=0.,
(PID.TID 0000.0001) > diffK4T=0.E17,
(PID.TID 0000.0001) > diffKrS=0.E2,
(PID.TID 0000.0001) > diffKhS=0.E3,
(PID.TID 0000.0001) > diffK4S=0.E17,
(PID.TID 0000.0001) > buoyancyRelation='ATMOSPHERIC',
(PID.TID 0000.0001) > eosType='IDEALGAS',
(PID.TID 0000.0001) > atm_Rq=0.6078,
(PID.TID 0000.0001) >#Integr_GeoPot=2,
(PID.TID 0000.0001) > rotationPeriod=86400.,
(PID.TID 0000.0001) > gravity=9.81,
(PID.TID 0000.0001) > rhonil=1.0,
(PID.TID 0000.0001) > rhoConst=1.0,
(PID.TID 0000.0001) > rigidLid=.FALSE.,
(PID.TID 0000.0001) > implicitFreeSurface=.TRUE.,
(PID.TID 0000.0001) > exactConserv=.TRUE.,
(PID.TID 0000.0001) > uniformLin_PhiSurf=.FALSE.,
(PID.TID 0000.0001) > staggerTimeStep=.TRUE.,
(PID.TID 0000.0001) > nonHydrostatic=.FALSE.,
(PID.TID 0000.0001) > readBinaryPrec=64,
(PID.TID 0000.0001) > writeBinaryPrec=64,
(PID.TID 0000.0001) > hFacMin=0.2,
(PID.TID 0000.0001) > nonlinFreeSurf=4,
(PID.TID 0000.0001) > select_rStar=2,
(PID.TID 0000.0001) > saltAdvScheme=3,
(PID.TID 0000.0001) > vectorInvariantMomentum=.TRUE.,
(PID.TID 0000.0001) >#- here are the new things:
(PID.TID 0000.0001) > useAbsVorticity=.TRUE.,
(PID.TID 0000.0001) > SadournyCoriolis=.TRUE.,
(PID.TID 0000.0001) > selectKEscheme=3,
(PID.TID 0000.0001) > &
(PID.TID 0000.0001) >
(PID.TID 0000.0001) ># Elliptic solver parameters
(PID.TID 0000.0001) > &PARM02
(PID.TID 0000.0001) > cg2dMaxIters=200,
(PID.TID 0000.0001) >#cg2dTargetResidual=1.E-12,
(PID.TID 0000.0001) > cg2dTargetResWunit=1.E-17,
(PID.TID 0000.0001) > &
(PID.TID 0000.0001) >
(PID.TID 0000.0001) ># Time stepping parameters
(PID.TID 0000.0001) > &PARM03
(PID.TID 0000.0001) > nIter0=0,
(PID.TID 0000.0001) > nTimeSteps=7,
(PID.TID 0000.0001) >#endTime=864000.0,
(PID.TID 0000.0001) > deltaT=120.0,
(PID.TID 0000.0001) > forcing_In_AB=.FALSE.,
(PID.TID 0000.0001) > abEps=0.1,
(PID.TID 0000.0001) > cAdjFreq=0.,
(PID.TID 0000.0001) > pChkptFreq=0.0,
(PID.TID 0000.0001) > ChkptFreq=0.0,
(PID.TID 0000.0001) > dumpFreq=0.0,
(PID.TID 0000.0001) > monitorFreq=1.,
(PID.TID 0000.0001) >#monitorFreq=2678400.,
(PID.TID 0000.0001) > taveFreq=0.0,
(PID.TID 0000.0001) > tave_lastiter=1.,
(PID.TID 0000.0001) > &
(PID.TID 0000.0001) >
(PID.TID 0000.0001) ># Gridding parameters
(PID.TID 0000.0001) > &PARM04
(PID.TID 0000.0001) > usingCartesianGrid=.FALSE.,
(PID.TID 0000.0001) > usingSphericalPolarGrid=.FALSE.,
(PID.TID 0000.0001) > usingCurvilinearGrid=.TRUE.,
(PID.TID 0000.0001) > delR=20*5054.,
(PID.TID 0000.0001) > Ro_SeaLevel=101080.,
(PID.TID 0000.0001) > rSphere=6371.E3,
(PID.TID 0000.0001) > &
(PID.TID 0000.0001) >
(PID.TID 0000.0001) ># Input datasets
(PID.TID 0000.0001) > &PARM05
(PID.TID 0000.0001) >#topoFile='topo.cs.bin',
(PID.TID 0000.0001) > uVelInitFile='U.input.20Lev',
(PID.TID 0000.0001) > vVelInitFile='V.input.20Lev',
(PID.TID 0000.0001) > hydrogThetaFile='T.input.20Lev',
(PID.TID 0000.0001) > hydrogSaltFile='RH.input.20Lev',
(PID.TID 0000.0001) > &
(PID.TID 0000.0001) 
(PID.TID 0000.0001) S/R INI_PARMS ; starts to read PARM01
(PID.TID 0000.0001) S/R INI_PARMS ; read PARM01 : OK
(PID.TID 0000.0001) S/R INI_PARMS ; starts to read PARM02
(PID.TID 0000.0001) S/R INI_PARMS ; read PARM02 : OK
(PID.TID 0000.0001) S/R INI_PARMS ; starts to read PARM03
(PID.TID 0000.0001) S/R INI_PARMS ; read PARM03 : OK
(PID.TID 0000.0001) S/R INI_PARMS ; starts to read PARM04
(PID.TID 0000.0001) S/R INI_PARMS ; read PARM04 : OK
(PID.TID 0000.0001) S/R INI_PARMS ; starts to read PARM05
(PID.TID 0000.0001) S/R INI_PARMS ; read PARM05 : OK
(PID.TID 0000.0001)  PACKAGES_BOOT: opening data.pkg
(PID.TID 0000.0001)  OPEN_COPY_DATA_FILE: opening file data.pkg
(PID.TID 0000.0001) // =======================================================
(PID.TID 0000.0001) // Parameter file "data.pkg"
(PID.TID 0000.0001) // =======================================================
(PID.TID 0000.0001) ># Packages
(PID.TID 0000.0001) > &PACKAGES
(PID.TID 0000.0001) > useFIZHI=.TRUE.,
(PID.TID 0000.0001) > useGRIDALT=.TRUE.,
(PID.TID 0000.0001) > useSHAP_FILT=.TRUE.,
(PID.TID 0000.0001) > useDIAGNOSTICS=.TRUE.,
(PID.TID 0000.0001) > useMNC=.TRUE.,
(PID.TID 0000.0001) > &
(PID.TID 0000.0001) 
(PID.TID 0000.0001)  PACKAGES_BOOT: finished reading data.pkg
(PID.TID 0000.0001)  MNC_READPARMS: opening file 'data.mnc'
(PID.TID 0000.0001)  OPEN_COPY_DATA_FILE: opening file data.mnc
(PID.TID 0000.0001) // =======================================================
(PID.TID 0000.0001) // Parameter file "data.mnc"
(PID.TID 0000.0001) // =======================================================
(PID.TID 0000.0001) ># Example "data.mnc" file
(PID.TID 0000.0001) ># Lines beginning "#" are comments
(PID.TID 0000.0001) > &MNC_01
(PID.TID 0000.0001) ># mnc_echo_gvtypes=.FALSE.,
(PID.TID 0000.0001) ># mnc_use_indir=.FALSE.,
(PID.TID 0000.0001) > mnc_use_outdir=.TRUE.,
(PID.TID 0000.0001) > mnc_outdir_str='mnc_test_',
(PID.TID 0000.0001) ># mnc_outdir_date=.TRUE.,
(PID.TID 0000.0001) > monitor_mnc=.FALSE.,
(PID.TID 0000.0001) > pickup_write_mnc=.FALSE.,
(PID.TID 0000.0001) > pickup_read_mnc=.FALSE.,
(PID.TID 0000.0001) > &
(PID.TID 0000.0001) ># Note: Some systems use & as the
(PID.TID 0000.0001) ># namelist terminator. Other systems
(PID.TID 0000.0001) ># use a / character (as shown here).
(PID.TID 0000.0001) 
(PID.TID 0000.0001)  MNC_READPARMS: finished reading data.mnc
(PID.TID 0000.0001)  SHAP_FILT_READPARMS: opening data.shap
(PID.TID 0000.0001)  OPEN_COPY_DATA_FILE: opening file data.shap
(PID.TID 0000.0001) // =======================================================
(PID.TID 0000.0001) // Parameter file "data.shap"
(PID.TID 0000.0001) // =======================================================
(PID.TID 0000.0001) ># Shapiro Filter parameters
(PID.TID 0000.0001) > &SHAP_PARM01
(PID.TID 0000.0001) > shap_filt_uvStar=.FALSE.,
(PID.TID 0000.0001) > shap_filt_TrStagg=.TRUE.,
(PID.TID 0000.0001) > Shap_funct=2,
(PID.TID 0000.0001) > nShapT=4,
(PID.TID 0000.0001) > nShapUV=4,
(PID.TID 0000.0001) > nShapTrPhys=4,
(PID.TID 0000.0001) > nShapUVPhys=4,
(PID.TID 0000.0001) >#Shap_TrLength=115000.,
(PID.TID 0000.0001) >#Shap_uvLength=110000.,
(PID.TID 0000.0001) >#-- here is the new value to add:
(PID.TID 0000.0001) > Shap_uvLength=-1.,
(PID.TID 0000.0001) > Shap_Trtau=5400.,
(PID.TID 0000.0001) > Shap_uvtau=1800.,
(PID.TID 0000.0001) > &
(PID.TID 0000.0001) 
(PID.TID 0000.0001)  SHAP_FILT_READPARMS: finished reading data.shap
(PID.TID 0000.0001) Shap_funct =   /* select Shapiro filter function */
(PID.TID 0000.0001)                       2
(PID.TID 0000.0001)     ;
(PID.TID 0000.0001) nShapT =   /* power of Shapiro filter for Temperat */
(PID.TID 0000.0001)                       4
(PID.TID 0000.0001)     ;
(PID.TID 0000.0001) nShapS =   /* power of Shapiro filter for Salinity */
(PID.TID 0000.0001)                       4
(PID.TID 0000.0001)     ;
(PID.TID 0000.0001) nShapUV =   /* power of Shapiro filter for momentum */
(PID.TID 0000.0001)                       4
(PID.TID 0000.0001)     ;
(PID.TID 0000.0001) shap_filt_uvStar = /* apply filter before Press. Solver */
(PID.TID 0000.0001)                   F
(PID.TID 0000.0001)     ;
(PID.TID 0000.0001) shap_filt_TrStagg = /* filter T,S before calc PhiHyd (staggerTimeStep) */
(PID.TID 0000.0001)                   T
(PID.TID 0000.0001)     ;
(PID.TID 0000.0001) Shap_alwaysExchUV = /* always exch(U,V)    nShapUV times*/
(PID.TID 0000.0001)                   T
(PID.TID 0000.0001)     ;
(PID.TID 0000.0001) Shap_alwaysExchTr = /* always exch(Tracer) nShapTr times*/
(PID.TID 0000.0001)                   F
(PID.TID 0000.0001)     ;
(PID.TID 0000.0001) nShapTrPhys =   /* power of physical-space filter (Tracer) */
(PID.TID 0000.0001)                       4
(PID.TID 0000.0001)     ;
(PID.TID 0000.0001) nShapUVPhys =   /* power of physical-space filter (Momentum) */
(PID.TID 0000.0001)                       4
(PID.TID 0000.0001)     ;
(PID.TID 0000.0001) Shap_Trtau =   /* time scale of Shapiro filter (Tracer) */
(PID.TID 0000.0001)                 5.400000000000000E+03
(PID.TID 0000.0001)     ;
(PID.TID 0000.0001) Shap_TrLength =   /* Length scale of Shapiro filter (Tracer) */
(PID.TID 0000.0001)                 0.000000000000000E+00
(PID.TID 0000.0001)     ;
(PID.TID 0000.0001) Shap_uvtau =   /* time scale of Shapiro filter (Momentum) */
(PID.TID 0000.0001)                 1.800000000000000E+03
(PID.TID 0000.0001)     ;
(PID.TID 0000.0001) Shap_uvLength =   /* Length scale of Shapiro filter (Momentum) */
(PID.TID 0000.0001)                -1.000000000000000E+00
(PID.TID 0000.0001)     ;
(PID.TID 0000.0001) Shap_noSlip =  /* No-slip parameter (0=Free-slip ; 1=No-slip)*/
(PID.TID 0000.0001)                 0.000000000000000E+00
(PID.TID 0000.0001)     ;
(PID.TID 0000.0001) Shap_diagFreq =   /* Frequency^-1 for diagnostic output (s)*/
(PID.TID 0000.0001)                 0.000000000000000E+00
(PID.TID 0000.0001)     ;
(PID.TID 0000.0001)  FIZHI_READPARMS: opening data.fizhi
(PID.TID 0000.0001)  OPEN_COPY_DATA_FILE: opening file data.fizhi
(PID.TID 0000.0001) // =======================================================
(PID.TID 0000.0001) // Parameter file "data.fizhi"
(PID.TID 0000.0001) // =======================================================
(PID.TID 0000.0001) ># Fizhi Parameters
(PID.TID 0000.0001) > &fizhi_list
(PID.TID 0000.0001) > nhmsbegin=000000,
(PID.TID 0000.0001) > nymdbegin=20040321,
(PID.TID 0000.0001) > runlength=0.003,
(PID.TID 0000.0001) > &
(PID.TID 0000.0001) 
(PID.TID 0000.0001)  CHANGING NUMBER OF MODEL TIMESTEPS TO        15
(PID.TID 0000.0001)  CHANGING END TIME TO     1800.00
   Begin Date     20040321   Begin Time            0
 Current Date     20040321 Current Time            0
(PID.TID 0000.0001)  DIAGNOSTICS_READPARMS: opening data.diagnostics
(PID.TID 0000.0001)  OPEN_COPY_DATA_FILE: opening file data.diagnostics
(PID.TID 0000.0001) // =======================================================
(PID.TID 0000.0001) // Parameter file "data.diagnostics"
(PID.TID 0000.0001) // =======================================================
(PID.TID 0000.0001) ># Diagnostic Package Choices
(PID.TID 0000.0001) > &diagnostics_list
(PID.TID 0000.0001) >      diag_mnc = .TRUE.,
(PID.TID 0000.0001) >    dumpatlast = .TRUE.,
(PID.TID 0000.0001) >  frequency(1) = 00.06,
(PID.TID 0000.0001) >   levels(1,1) = 1.,
(PID.TID 0000.0001) >   fields(1,1) = 'RADSWT  ','OSR     ','OLR     ','PLALBEDO','CLDFRC  ','PREACC  ',
(PID.TID 0000.0001) >                 'PRECON  ','EVAP    ','RADSWG  ','ALBNIRDF','ALBVISDF','LWGDOWN ',
(PID.TID 0000.0001) >                 'LWGUP   ','EFLUX   ','HFLUX   ','T2M     ','Q2M     ','UFLUX   ',
(PID.TID 0000.0001) >                 'VFLUX   ','U10M    ','V10M    ','PS      ','OSRCLR  ','OLRCLR  ',
(PID.TID 0000.0001) >                 'SWGCLR  ','LWGCLR  ','RSURF   ',
(PID.TID 0000.0001) >   filename(1) = 'SHfields',
(PID.TID 0000.0001) >  frequency(2) = 00.06,
(PID.TID 0000.0001) >  fileflags(2) = ' P      ',
(PID.TID 0000.0001) >   levels(1,2) = 1000.E+2, 925.E+2, 850.E+2, 700.E+2, 600.E+2, 500.E+2,
(PID.TID 0000.0001) >                  400.E+2, 300.E+2, 250.E+2, 200.E+2, 150.E+2, 100.E+2,
(PID.TID 0000.0001) >                   70.E+2,  50.E+2,  30.E+2,  20.E+2,  10.E+2,
(PID.TID 0000.0001) >   fields(1,2) = 'UVEL    ','VVEL    ','PHIHYD  ','WVEL    ','SALT    ','RELHUM  ',
(PID.TID 0000.0001) >                 'RCENTER ','THETA   ',
(PID.TID 0000.0001) >   filename(2) = 'MLfields',
(PID.TID 0000.0001) >  frequency(3) = 00.06,
(PID.TID 0000.0001) >  fileflags(3) = ' P      ',
(PID.TID 0000.0001) >   levels(1,3) = 1000.E+2, 925.E+2, 850.E+2, 700.E+2, 600.E+2, 500.E+2,
(PID.TID 0000.0001) >                  400.E+2, 300.E+2, 250.E+2, 200.E+2, 150.E+2, 100.E+2,
(PID.TID 0000.0001) >                   70.E+2,  50.E+2,  30.E+2,  20.E+2,  10.E+2,
(PID.TID 0000.0001) >   fields(1,3) = 'UVELSQ  ','VVELSQ  ','THETASQ ','WVELSQ  ','PHIHYDSQ','SALTSQ   ',
(PID.TID 0000.0001) >                 'UV_VEL_C','WU_VEL  ','WV_VEL  ','VVELTH  ','WVELTH  ','VVELSLT  ',
(PID.TID 0000.0001) >                 'WVELSLT ','UVELSLT ','UVELTH  ','UVELPHI ','VVELPHI ',
(PID.TID 0000.0001) >   filename(3) = 'MFfields',
(PID.TID 0000.0001) ># frequency(4) = -00.06,
(PID.TID 0000.0001) >#  levels(1,4) = 1.,2.,3.,4.,5.,6.,7.,8.,9.,10.,11.,12.,13.,14.,15.,16.,17.,18.,19.,20.,21.,22.,23.,24.,25.,26.,27.,28.,
(PID.TID 0000.0001) >#  fields(1,4) = 'RADSW   ','RADLW   ','TURBT   ','MOISTT  ','TURBQ   ','MOISTQ  ',
(PID.TID 0000.0001) >#                'TURBU   ','TURBV   ','DPPHYS  ',
(PID.TID 0000.0001) >#  filename(4) = 'PFfields',
(PID.TID 0000.0001) > &end
(PID.TID 0000.0001) >
(PID.TID 0000.0001) ># Parameter for Diagnostics of per level statistics:
(PID.TID 0000.0001) >#-----------------
(PID.TID 0000.0001) ># for each output-stream:
(PID.TID 0000.0001) >#  stat_fname(n) : prefix of the output file name (only 8.c long) for outp.stream n
(PID.TID 0000.0001) >#  stat_freq(n):< 0 : write snap-shot output every |stat_freq| seconds
(PID.TID 0000.0001) >#               > 0 : write time-average output every stat_freq seconds
(PID.TID 0000.0001) >#  stat_phase(n)    : write at time = stat_phase + multiple of |stat_freq|
(PID.TID 0000.0001) >#  stat_region(:,n) : list of "regions" (default: 1 region only=global)
(PID.TID 0000.0001) >#  stat_fields(:,n) : list of diagnostics fields (8.c) (see "available_diagnostics.log"
(PID.TID 0000.0001) >#                 file for the list of all available diag. in this particular config)
(PID.TID 0000.0001) >#-----------------
(PID.TID 0000.0001) > &DIAG_STATIS_PARMS
(PID.TID 0000.0001) >     stat_freq(1) = 1.00,
(PID.TID 0000.0001) >    stat_phase(1) = 0.,
(PID.TID 0000.0001) > stat_fields(1,1) = 'RADSWT  ','OSR     ','OLR     ','PLALBEDO','CLDFRC  ','PREACC  ',
(PID.TID 0000.0001) >                    'PRECON  ','EVAP    ','RADSWG  ','ALBNIRDF','ALBVISDF','LWGDOWN ',
(PID.TID 0000.0001) >                    'LWGUP   ','EFLUX   ','HFLUX   ','T2M     ','Q2M     ','UFLUX   ',
(PID.TID 0000.0001) >                    'VFLUX   ','U10M    ','V10M    ','PS      ','OSRCLR  ','OLRCLR  ',
(PID.TID 0000.0001) >                    'SWGCLR  ','LWGCLR  ',
(PID.TID 0000.0001) >    stat_fname(1) = 'GTfields',
(PID.TID 0000.0001) > &
(PID.TID 0000.0001) 
(PID.TID 0000.0001) S/R DIAGNOSTICS_READPARMS, read namelist "diagnostics_list": start
(PID.TID 0000.0001) S/R DIAGNOSTICS_READPARMS, read namelist "diagnostics_list": OK
(PID.TID 0000.0001) S/R DIAGNOSTICS_READPARMS, read namelist "DIAG_STATIS_PARMS": start
(PID.TID 0000.0001) S/R DIAGNOSTICS_READPARMS, read namelist "DIAG_STATIS_PARMS": OK
(PID.TID 0000.0001) -----------------------------------------------------
(PID.TID 0000.0001)  DIAGNOSTICS_READPARMS: active diagnostics summary:
(PID.TID 0000.0001) -----------------------------------------------------
(PID.TID 0000.0001) Creating Output Stream: SHfields
(PID.TID 0000.0001) Output Frequency:         0.060000 ; Phase:          0.000000
(PID.TID 0000.0001)  Averaging Freq.:         0.060000 , Phase:          0.000000 , Cycle:  1
(PID.TID 0000.0001)  Levels:       1.
(PID.TID 0000.0001) Fields:    RADSWT   OSR      OLR      PLALBEDO CLDFRC   PREACC   PRECON   EVAP     RADSWG   ALBNIRDF
(PID.TID 0000.0001) Fields:    ALBVISDF LWGDOWN  LWGUP    EFLUX    HFLUX    T2M      Q2M      UFLUX    VFLUX    U10M
(PID.TID 0000.0001) Fields:    V10M     PS       OSRCLR   OLRCLR   SWGCLR   LWGCLR   RSURF
(PID.TID 0000.0001) Creating Output Stream: MLfields
(PID.TID 0000.0001) Output Frequency:         0.060000 ; Phase:          0.000000
(PID.TID 0000.0001)  Averaging Freq.:         0.060000 , Phase:          0.000000 , Cycle:  1
(PID.TID 0000.0001)  interp:   1.000E+05 9.250E+04 8.500E+04 7.000E+04 6.000E+04 5.000E+04 4.000E+04 3.000E+04 2.500E+04 2.000E+04
(PID.TID 0000.0001)  interp:   1.500E+04 1.000E+04 7.000E+03 5.000E+03 3.000E+03 2.000E+03 1.000E+03
(PID.TID 0000.0001) Fields:    UVEL     VVEL     PHIHYD   WVEL     SALT     RELHUM   RCENTER  THETA
(PID.TID 0000.0001) Creating Output Stream: MFfields
(PID.TID 0000.0001) Output Frequency:         0.060000 ; Phase:          0.000000
(PID.TID 0000.0001)  Averaging Freq.:         0.060000 , Phase:          0.000000 , Cycle:  1
(PID.TID 0000.0001)  interp:   1.000E+05 9.250E+04 8.500E+04 7.000E+04 6.000E+04 5.000E+04 4.000E+04 3.000E+04 2.500E+04 2.000E+04
(PID.TID 0000.0001)  interp:   1.500E+04 1.000E+04 7.000E+03 5.000E+03 3.000E+03 2.000E+03 1.000E+03
(PID.TID 0000.0001) Fields:    UVELSQ   VVELSQ   THETASQ  WVELSQ   PHIHYDSQ SALTSQ   UV_VEL_C WU_VEL   WV_VEL   VVELTH
(PID.TID 0000.0001) Fields:    WVELTH   VVELSLT  WVELSLT  UVELSLT  UVELTH   UVELPHI  VVELPHI
(PID.TID 0000.0001) -----------------------------------------------------
(PID.TID 0000.0001)  DIAGNOSTICS_READPARMS: statistics diags. summary:
(PID.TID 0000.0001) Creating Stats. Output Stream: GTfields
(PID.TID 0000.0001) Output Frequency:         1.000000 ; Phase:          0.000000
(PID.TID 0000.0001)               0
(PID.TID 0000.0001) Fields:    RADSWT   OSR      OLR      PLALBEDO CLDFRC   PREACC   PRECON   EVAP     RADSWG   ALBNIRDF ALBVISDF LWGDOWN  LWGUP    EFLUX    HFLUX    T2M      Q2M      UFLUX    VFLUX    U10M     V10M     PS       OSRCLR   OLRCLR   SWGCLR   LWGCLR
(PID.TID 0000.0001) -----------------------------------------------------
(PID.TID 0000.0001) -----------------------------------------------------
(PID.TID 0000.0001) SET_PARMS: done
(PID.TID 0000.0001) Enter INI_VERTICAL_GRID: setInterFDr=    T ; setCenterDr=    F
(PID.TID 0000.0001) tile:   1 ; Read from file tile001.mitgrid
(PID.TID 0000.0001)   => xC yC dxF dyF rA xG yG dxV dyU rAz dxC dyC rAw rAs dxG dyG
(PID.TID 0000.0001) tile:   2 ; Read from file tile002.mitgrid
(PID.TID 0000.0001)   => xC yC dxF dyF rA xG yG dxV dyU rAz dxC dyC rAw rAs dxG dyG
(PID.TID 0000.0001) tile:   3 ; Read from file tile003.mitgrid
(PID.TID 0000.0001)   => xC yC dxF dyF rA xG yG dxV dyU rAz dxC dyC rAw rAs dxG dyG
(PID.TID 0000.0001) tile:   4 ; Read from file tile004.mitgrid
(PID.TID 0000.0001)   => xC yC dxF dyF rA xG yG dxV dyU rAz dxC dyC rAw rAs dxG dyG
(PID.TID 0000.0001) tile:   5 ; Read from file tile005.mitgrid
(PID.TID 0000.0001)   => xC yC dxF dyF rA xG yG dxV dyU rAz dxC dyC rAw rAs dxG dyG
(PID.TID 0000.0001) tile:   6 ; Read from file tile006.mitgrid
(PID.TID 0000.0001)   => xC yC dxF dyF rA xG yG dxV dyU rAz dxC dyC rAw rAs dxG dyG
(PID.TID 0000.0001) %MON XC_max                       =   1.7854351589505E+02
(PID.TID 0000.0001) %MON XC_min                       =  -1.7854351589505E+02
(PID.TID 0000.0001) %MON XC_mean                      =  -4.6999441375798E-15
(PID.TID 0000.0001) %MON XC_sd                        =   1.0355545336287E+02
(PID.TID 0000.0001) %MON XG_max                       =   1.8000000000000E+02
(PID.TID 0000.0001) %MON XG_min                       =  -1.7708797161002E+02
(PID.TID 0000.0001) %MON XG_mean                      =   1.8796250616675E+00
(PID.TID 0000.0001) %MON XG_sd                        =   1.0410625309932E+02
(PID.TID 0000.0001) %MON DXC_max                      =   3.2375185836900E+05
(PID.TID 0000.0001) %MON DXC_min                      =   1.1353730006923E+05
(PID.TID 0000.0001) %MON DXC_mean                     =   2.8606102525036E+05
(PID.TID 0000.0001) %MON DXC_sd                       =   3.4020997630307E+04
(PID.TID 0000.0001) %MON DXF_max                      =   3.2369947500827E+05
(PID.TID 0000.0001) %MON DXF_min                      =   1.2020820513318E+05
(PID.TID 0000.0001) %MON DXF_mean                     =   2.8605437324820E+05
(PID.TID 0000.0001) %MON DXF_sd                       =   3.4050524252539E+04
(PID.TID 0000.0001) %MON DXG_max                      =   3.2375195872773E+05
(PID.TID 0000.0001) %MON DXG_min                      =   1.0098378008791E+05
(PID.TID 0000.0001) %MON DXG_mean                     =   2.8603818508931E+05
(PID.TID 0000.0001) %MON DXG_sd                       =   3.4140406908005E+04
(PID.TID 0000.0001) %MON DXV_max                      =   3.2380418162750E+05
(PID.TID 0000.0001) %MON DXV_min                      =   8.0152299824136E+04
(PID.TID 0000.0001) %MON DXV_mean                     =   2.8603970633619E+05
(PID.TID 0000.0001) %MON DXV_sd                       =   3.4145142117723E+04
(PID.TID 0000.0001) %MON YC_max                       =   8.7940663871962E+01
(PID.TID 0000.0001) %MON YC_min                       =  -8.7940663871962E+01
(PID.TID 0000.0001) %MON YC_mean                      =   0.0000000000000E+00
(PID.TID 0000.0001) %MON YC_sd                        =   3.8676242969072E+01
(PID.TID 0000.0001) %MON YG_max                       =   9.0000000000000E+01
(PID.TID 0000.0001) %MON YG_min                       =  -9.0000000000000E+01
(PID.TID 0000.0001) %MON YG_mean                      =  -1.2094344438470E-15
(PID.TID 0000.0001) %MON YG_sd                        =   3.9086186579984E+01
(PID.TID 0000.0001) %MON DYC_max                      =   3.2375185836900E+05
(PID.TID 0000.0001) %MON DYC_min                      =   1.1353730006923E+05
(PID.TID 0000.0001) %MON DYC_mean                     =   2.8606102525036E+05
(PID.TID 0000.0001) %MON DYC_sd                       =   3.4020997630307E+04
(PID.TID 0000.0001) %MON DYF_max                      =   3.2369947500827E+05
(PID.TID 0000.0001) %MON DYF_min                      =   1.2020820513318E+05
(PID.TID 0000.0001) %MON DYF_mean                     =   2.8605437324820E+05
(PID.TID 0000.0001) %MON DYF_sd                       =   3.4050524252539E+04
(PID.TID 0000.0001) %MON DYG_max                      =   3.2375195872773E+05
(PID.TID 0000.0001) %MON DYG_min                      =   1.0098378008791E+05
(PID.TID 0000.0001) %MON DYG_mean                     =   2.8603818508931E+05
(PID.TID 0000.0001) %MON DYG_sd                       =   3.4140406908005E+04
(PID.TID 0000.0001) %MON DYU_max                      =   3.2380418162750E+05
(PID.TID 0000.0001) %MON DYU_min                      =   8.0152299824136E+04
(PID.TID 0000.0001) %MON DYU_mean                     =   2.8603970633619E+05
(PID.TID 0000.0001) %MON DYU_sd                       =   3.4145142117723E+04
(PID.TID 0000.0001) %MON RA_max                       =   1.0474757731659E+11
(PID.TID 0000.0001) %MON RA_min                       =   1.5497867056722E+10
(PID.TID 0000.0001) %MON RA_mean                      =   8.2985711332657E+10
(PID.TID 0000.0001) %MON RA_sd                        =   1.7448591913787E+10
(PID.TID 0000.0001) %MON RAW_max                      =   1.0481529828871E+11
(PID.TID 0000.0001) %MON RAW_min                      =   1.1465425741966E+10
(PID.TID 0000.0001) %MON RAW_mean                     =   8.2985711332657E+10
(PID.TID 0000.0001) %MON RAW_sd                       =   1.7503889570793E+10
(PID.TID 0000.0001) %MON RAS_max                      =   1.0481529828871E+11
(PID.TID 0000.0001) %MON RAS_min                      =   1.1465425741966E+10
(PID.TID 0000.0001) %MON RAS_mean                     =   8.2985711332657E+10
(PID.TID 0000.0001) %MON RAS_sd                       =   1.7503889570793E+10
(PID.TID 0000.0001) %MON RAZ_max                      =   1.0484349334619E+11
(PID.TID 0000.0001) %MON RAZ_min                      =   8.8317900612505E+09
(PID.TID 0000.0001) %MON RAZ_mean                     =   8.2992246709235E+10
(PID.TID 0000.0001) %MON RAZ_sd                       =   1.7482297311044E+10
(PID.TID 0000.0001) %MON AngleCS_max                  =   1.0000000000000E+00
(PID.TID 0000.0001) %MON AngleCS_min                  =   1.0000000000000E+00
(PID.TID 0000.0001) %MON AngleCS_mean                 =   1.0000000000000E+00
(PID.TID 0000.0001) %MON AngleCS_sd                   =   0.0000000000000E+00
(PID.TID 0000.0001) %MON AngleSN_max                  =   0.0000000000000E+00
(PID.TID 0000.0001) %MON AngleSN_min                  =   0.0000000000000E+00
(PID.TID 0000.0001) %MON AngleSN_mean                 =   0.0000000000000E+00
(PID.TID 0000.0001) %MON AngleSN_sd                   =   0.0000000000000E+00
(PID.TID 0000.0001) 
(PID.TID 0000.0001) INI_PHIREF: PhiRef/g [m] at level Center (integer)
(PID.TID 0000.0001)                      and at level Interface (half-int.) :
(PID.TID 0000.0001)  K=  0.5  ;  r=  101080.0  ;  phiRef/g=       0.000
(PID.TID 0000.0001)  K=  1.0  ;  r=   98553.0  ;  phiRef/g=     211.618
(PID.TID 0000.0001)  K=  1.5  ;  r=   96026.0  ;  phiRef/g=     429.193
(PID.TID 0000.0001)  K=  2.0  ;  r=   93499.0  ;  phiRef/g=     648.289
(PID.TID 0000.0001)  K=  2.5  ;  r=   90972.0  ;  phiRef/g=     876.016
(PID.TID 0000.0001)  K=  3.0  ;  r=   88445.0  ;  phiRef/g=    1105.324
(PID.TID 0000.0001)  K=  3.5  ;  r=   85918.0  ;  phiRef/g=    1344.193
(PID.TID 0000.0001)  K=  4.0  ;  r=   83391.0  ;  phiRef/g=    1584.709
(PID.TID 0000.0001)  K=  4.5  ;  r=   80864.0  ;  phiRef/g=    1835.875
(PID.TID 0000.0001)  K=  5.0  ;  r=   78337.0  ;  phiRef/g=    2089.621
(PID.TID 0000.0001)  K=  5.5  ;  r=   75810.0  ;  phiRef/g=    2355.346
(PID.TID 0000.0001)  K=  6.0  ;  r=   73283.0  ;  phiRef/g=    2623.773
(PID.TID 0000.0001)  K=  6.5  ;  r=   70756.0  ;  phiRef/g=    2905.769
(PID.TID 0000.0001)  K=  7.0  ;  r=   68229.0  ;  phiRef/g=    3190.604
(PID.TID 0000.0001)  K=  7.5  ;  r=   65702.0  ;  phiRef/g=    3490.936
(PID.TID 0000.0001)  K=  8.0  ;  r=   63175.0  ;  phiRef/g=    3794.260
(PID.TID 0000.0001)  K=  8.5  ;  r=   60648.0  ;  phiRef/g=    4115.449
(PID.TID 0000.0001)  K=  9.0  ;  r=   58121.0  ;  phiRef/g=    4439.808
(PID.TID 0000.0001)  K=  9.5  ;  r=   55594.0  ;  phiRef/g=    4784.988
(PID.TID 0000.0001)  K= 10.0  ;  r=   53067.0  ;  phiRef/g=    5133.542
(PID.TID 0000.0001)  K= 10.5  ;  r=   50540.0  ;  phiRef/g=    5506.684
(PID.TID 0000.0001)  K= 11.0  ;  r=   48013.0  ;  phiRef/g=    5883.438
(PID.TID 0000.0001)  K= 11.5  ;  r=   45486.0  ;  phiRef/g=    6289.688
(PID.TID 0000.0001)  K= 12.0  ;  r=   42959.0  ;  phiRef/g=    6699.831
(PID.TID 0000.0001)  K= 12.5  ;  r=   40432.0  ;  phiRef/g=    7146.048
(PID.TID 0000.0001)  K= 13.0  ;  r=   37905.0  ;  phiRef/g=    7597.208
(PID.TID 0000.0001)  K= 13.5  ;  r=   35378.0  ;  phiRef/g=    8093.639
(PID.TID 0000.0001)  K= 14.0  ;  r=   32851.0  ;  phiRef/g=    8595.509
(PID.TID 0000.0001)  K= 14.5  ;  r=   30324.0  ;  phiRef/g=    9156.007
(PID.TID 0000.0001)  K= 15.0  ;  r=   27797.0  ;  phiRef/g=    9724.314
(PID.TID 0000.0001)  K= 15.5  ;  r=   25270.0  ;  phiRef/g=   10372.073
(PID.TID 0000.0001)  K= 16.0  ;  r=   22743.0  ;  phiRef/g=   11028.733
(PID.TID 0000.0001)  K= 16.5  ;  r=   20216.0  ;  phiRef/g=   11799.753
(PID.TID 0000.0001)  K= 17.0  ;  r=   17689.0  ;  phiRef/g=   12596.319
(PID.TID 0000.0001)  K= 17.5  ;  r=   15162.0  ;  phiRef/g=   13577.072
(PID.TID 0000.0001)  K= 18.0  ;  r=   12635.0  ;  phiRef/g=   14594.997
(PID.TID 0000.0001)  K= 18.5  ;  r=   10108.0  ;  phiRef/g=   15964.899
(PID.TID 0000.0001)  K= 19.0  ;  r=    7581.0  ;  phiRef/g=   17488.721
(PID.TID 0000.0001)  K= 19.5  ;  r=    5054.0  ;  phiRef/g=   20101.180
(PID.TID 0000.0001)  K= 20.0  ;  r=    2527.0  ;  phiRef/g=   23003.912
(PID.TID 0000.0001)  K= 20.5  ;  r=       0.0  ;  phiRef/g=   38748.049
(PID.TID 0000.0001) // =======================================================
(PID.TID 0000.0001) // Field Model R_low (ini_masks_etc) at iteration          1
(PID.TID 0000.0001) // CMIN =          1.000000000000000E+32
(PID.TID 0000.0001) // CMAX =         -1.000000000000000E+32
(PID.TID 0000.0001) // CINT =          0.000000000000000E+00
(PID.TID 0000.0001) // SYMBOLS (CMIN->CMAX): -abcdefghijklmnopqrstuvwxyz+
(PID.TID 0000.0001) //                  0.0: .
(PID.TID 0000.0001) // RANGE I (Lo:Hi:Step):(  -1: 194:   1)
(PID.TID 0000.0001) // RANGE J (Lo:Hi:Step):(  34:  -1:  -1)
(PID.TID 0000.0001) // RANGE K (Lo:Hi:Step):(   1:   1:   1)
(PID.TID 0000.0001) // =======================================================
(PID.TID 0000.0001) // =======================================================
(PID.TID 0000.0001) // END OF FIELD                                          =
(PID.TID 0000.0001) // =======================================================
(PID.TID 0000.0001) 
(PID.TID 0000.0001) // =======================================================
(PID.TID 0000.0001) // Field Model Ro_surf (ini_masks_etc) at iteration          1
(PID.TID 0000.0001) // CMIN =          1.010800000000000E+05
(PID.TID 0000.0001) // CMAX =          1.010800000000000E+05
(PID.TID 0000.0001) // CINT =          0.000000000000000E+00
(PID.TID 0000.0001) // SYMBOLS (CMIN->CMAX): -abcdefghijklmnopqrstuvwxyz+
(PID.TID 0000.0001) //                  0.0: .
(PID.TID 0000.0001) // RANGE I (Lo:Hi:Step):(  -1: 194:   1)
(PID.TID 0000.0001) // RANGE J (Lo:Hi:Step):(  34:  -1:  -1)
(PID.TID 0000.0001) // RANGE K (Lo:Hi:Step):(   1:   1:   1)
(PID.TID 0000.0001) // =======================================================
(PID.TID 0000.0001) // =======================================================
(PID.TID 0000.0001) // END OF FIELD                                          =
(PID.TID 0000.0001) // =======================================================
(PID.TID 0000.0001) 
(PID.TID 0000.0001) // =======================================================
(PID.TID 0000.0001) // Field hFacC at iteration          1
(PID.TID 0000.0001) // CMIN =          1.000000000000000E+00
(PID.TID 0000.0001) // CMAX =          1.000000000000000E+00
(PID.TID 0000.0001) // CINT =          0.000000000000000E+00
(PID.TID 0000.0001) // SYMBOLS (CMIN->CMAX): -abcdefghijklmnopqrstuvwxyz+
(PID.TID 0000.0001) //                  0.0: .
(PID.TID 0000.0001) // RANGE I (Lo:Hi:Step):(  -1: 194:   1)
(PID.TID 0000.0001) // RANGE J (Lo:Hi:Step):(  34:  -1:  -1)
(PID.TID 0000.0001) // RANGE K (Lo:Hi:Step):(   1:   1:   1)
(PID.TID 0000.0001) // =======================================================
(PID.TID 0000.0001) // =======================================================
(PID.TID 0000.0001) // END OF FIELD                                          =
(PID.TID 0000.0001) // =======================================================
(PID.TID 0000.0001) 
(PID.TID 0000.0001) // =======================================================
(PID.TID 0000.0001) // Field hFacW at iteration          1
(PID.TID 0000.0001) // CMIN =          1.000000000000000E+00
(PID.TID 0000.0001) // CMAX =          1.000000000000000E+00
(PID.TID 0000.0001) // CINT =          0.000000000000000E+00
(PID.TID 0000.0001) // SYMBOLS (CMIN->CMAX): -abcdefghijklmnopqrstuvwxyz+
(PID.TID 0000.0001) //                  0.0: .
(PID.TID 0000.0001) // RANGE I (Lo:Hi:Step):(  -1: 194:   1)
(PID.TID 0000.0001) // RANGE J (Lo:Hi:Step):(  34:  -1:  -1)
(PID.TID 0000.0001) // RANGE K (Lo:Hi:Step):(   1:   1:   1)
(PID.TID 0000.0001) // =======================================================
(PID.TID 0000.0001) // =======================================================
(PID.TID 0000.0001) // END OF FIELD                                          =
(PID.TID 0000.0001) // =======================================================
(PID.TID 0000.0001) 
(PID.TID 0000.0001) // =======================================================
(PID.TID 0000.0001) // Field hFacS at iteration          1
(PID.TID 0000.0001) // CMIN =          1.000000000000000E+00
(PID.TID 0000.0001) // CMAX =          1.000000000000000E+00
(PID.TID 0000.0001) // CINT =          0.000000000000000E+00
(PID.TID 0000.0001) // SYMBOLS (CMIN->CMAX): -abcdefghijklmnopqrstuvwxyz+
(PID.TID 0000.0001) //                  0.0: .
(PID.TID 0000.0001) // RANGE I (Lo:Hi:Step):(  -1: 194:   1)
(PID.TID 0000.0001) // RANGE J (Lo:Hi:Step):(  34:  -1:  -1)
(PID.TID 0000.0001) // RANGE K (Lo:Hi:Step):(   1:   1:   1)
(PID.TID 0000.0001) // =======================================================
(PID.TID 0000.0001) // =======================================================
(PID.TID 0000.0001) // END OF FIELD                                          =
(PID.TID 0000.0001) // =======================================================
(PID.TID 0000.0001) 
(PID.TID 0000.0001) 
(PID.TID 0000.0001) // ===================================
(PID.TID 0000.0001) // GAD parameters :
(PID.TID 0000.0001) // ===================================
(PID.TID 0000.0001) tempAdvScheme =   /* Temp. Horiz.Advection scheme selector */
(PID.TID 0000.0001)                       2
(PID.TID 0000.0001)     ;
(PID.TID 0000.0001) tempVertAdvScheme =   /* Temp. Vert. Advection scheme selector */
(PID.TID 0000.0001)                       2
(PID.TID 0000.0001)     ;
(PID.TID 0000.0001) tempMultiDimAdvec =   /* use Muti-Dim Advec method for Temp */
(PID.TID 0000.0001)                   F
(PID.TID 0000.0001)     ;
(PID.TID 0000.0001) tempSOM_Advection = /* use 2nd Order Moment Advection for Temp */
(PID.TID 0000.0001)                   F
(PID.TID 0000.0001)     ;
(PID.TID 0000.0001) AdamsBashforthGt = /* apply Adams-Bashforth extrapolation on Gt */
(PID.TID 0000.0001)                   T
(PID.TID 0000.0001)     ;
(PID.TID 0000.0001) AdamsBashforth_T = /* apply Adams-Bashforth extrapolation on Temp */
(PID.TID 0000.0001)                   F
(PID.TID 0000.0001)     ;
(PID.TID 0000.0001) saltAdvScheme =   /* Salt. Horiz.advection scheme selector */
(PID.TID 0000.0001)                       3
(PID.TID 0000.0001)     ;
(PID.TID 0000.0001) saltVertAdvScheme =   /* Salt. Vert. Advection scheme selector */
(PID.TID 0000.0001)                       3
(PID.TID 0000.0001)     ;
(PID.TID 0000.0001) saltMultiDimAdvec =   /* use Muti-Dim Advec method for Salt */
(PID.TID 0000.0001)                   F
(PID.TID 0000.0001)     ;
(PID.TID 0000.0001) saltSOM_Advection = /* use 2nd Order Moment Advection for Salt */
(PID.TID 0000.0001)                   F
(PID.TID 0000.0001)     ;
(PID.TID 0000.0001) AdamsBashforthGs = /* apply Adams-Bashforth extrapolation on Gs */
(PID.TID 0000.0001)                   T
(PID.TID 0000.0001)     ;
(PID.TID 0000.0001) AdamsBashforth_S = /* apply Adams-Bashforth extrapolation on Salt */
(PID.TID 0000.0001)                   F
(PID.TID 0000.0001)     ;
(PID.TID 0000.0001) // ===================================
 Setting Alarm for: 20040321  000000,  with frequency:       3000, and Tag: radsw                                                                           
 Setting Alarm for: 20040321  000000,  with frequency:       3000, and Tag: radlw                                                                           
 Setting Alarm for: 20040321  000000,  with frequency:        400, and Tag: turb                                                                            
 Setting Alarm for: 20040321  000000,  with frequency:       1000, and Tag: moist                                                                           
 Setting Alarm for: 20040321  000000,  with frequency:          0, and Tag: pnt                                                                             
 Number of Total Tiles for bi=           1:         2048
 Number of Land  Tiles for bi=           1:            0
 Number of Total Tiles for bi=           2:         2048
 Number of Land  Tiles for bi=           2:            0
 Number of Total Tiles for bi=           3:         2048
 Number of Land  Tiles for bi=           3:            0
 Number of Total Tiles for bi=           4:         2048
 Number of Land  Tiles for bi=           4:            0
 Number of Total Tiles for bi=           5:         2048
 Number of Land  Tiles for bi=           5:            0
 Number of Total Tiles for bi=           6:         2048
 Number of Land  Tiles for bi=           6:            0
(PID.TID 0000.0001) ------------------------------------------------------------
(PID.TID 0000.0001) DIAGNOSTICS_SET_LEVELS: done
(PID.TID 0000.0001)  Total Nb of available Diagnostics: ndiagt= 385
(PID.TID 0000.0001)  write list of available Diagnostics to file: available_diagnostics.log
(PID.TID 0000.0001) SETDIAG: Allocate  1 x  1 Levels for Diagnostic # 210 RADSWT
(PID.TID 0000.0001) SETDIAG: Allocate  1 x  1 Levels for Diagnostic # 233 OSR
(PID.TID 0000.0001) SETDIAG: Allocate  1 x  1 Levels for Diagnostic # 199 OLR
(PID.TID 0000.0001) SETDIAG: Allocate  1 x  1 Levels for Diagnostic # 372 PLALBEDO
(PID.TID 0000.0001) SETDIAG: Allocate  1 x  1 Levels for Diagnostic # 263 CLDFRC
(PID.TID 0000.0001) SETDIAG: Allocate  1 x  1 Levels for Diagnostic # 183 PREACC
(PID.TID 0000.0001) SETDIAG: Allocate  1 x  1 Levels for Diagnostic # 184 PRECON
(PID.TID 0000.0001) SETDIAG: Allocate  1 x  1 Levels for Diagnostic # 214 EVAP
(PID.TID 0000.0001) SETDIAG: Allocate  1 x  1 Levels for Diagnostic # 167 RADSWG
(PID.TID 0000.0001) SETDIAG: Allocate  1 x  1 Levels for Diagnostic # 343 ALBNIRDF
(PID.TID 0000.0001) SETDIAG: Allocate  1 x  1 Levels for Diagnostic # 341 ALBVISDF
(PID.TID 0000.0001) SETDIAG: Allocate  1 x  1 Levels for Diagnostic # 208 LWGDOWN
(PID.TID 0000.0001) SETDIAG: Allocate  1 x  1 Levels for Diagnostic # 198 LWGUP
(PID.TID 0000.0001) SETDIAG: Allocate  1 x  1 Levels for Diagnostic # 162 EFLUX
(PID.TID 0000.0001) SETDIAG: Allocate  1 x  1 Levels for Diagnostic # 161 HFLUX
(PID.TID 0000.0001) SETDIAG: Allocate  1 x  1 Levels for Diagnostic # 267 T2M
(PID.TID 0000.0001) SETDIAG: Allocate  1 x  1 Levels for Diagnostic # 268 Q2M
(PID.TID 0000.0001) SETDIAG: Allocate  1 x  1 Levels for Diagnostic # 163 UFLUX
(PID.TID 0000.0001) SETDIAG: Allocate  1 x  1 Levels for Diagnostic # 164 VFLUX
(PID.TID 0000.0001) SETDIAG: Allocate  1 x  1 Levels for Diagnostic # 269 U10M
(PID.TID 0000.0001) SETDIAG: Allocate  1 x  1 Levels for Diagnostic # 270 V10M
(PID.TID 0000.0001) SETDIAG: Allocate  1 x  1 Levels for Diagnostic # 241 PS
(PID.TID 0000.0001) SETDIAG: Allocate  1 x  1 Levels for Diagnostic # 234 OSRCLR
(PID.TID 0000.0001) SETDIAG: Allocate  1 x  1 Levels for Diagnostic # 200 OLRCLR
(PID.TID 0000.0001) SETDIAG: Allocate  1 x  1 Levels for Diagnostic # 244 SWGCLR
(PID.TID 0000.0001) SETDIAG: Allocate  1 x  1 Levels for Diagnostic # 201 LWGCLR
(PID.TID 0000.0001) SETDIAG: Allocate  1 x  1 Levels for Diagnostic #  86 RSURF
(PID.TID 0000.0001) SETDIAG: Allocate 20 x  1 Levels for Diagnostic #  29 UVEL
(PID.TID 0000.0001) SETDIAG: Allocate 20 x  1 Levels for Diagnostic #  30 VVEL
(PID.TID 0000.0001) SETDIAG: Allocate 20 x  1 Levels for Diagnostic #  63 PHIHYD
(PID.TID 0000.0001) SETDIAG: Allocate 20 x  1 Levels for Diagnostic #  31 WVEL
(PID.TID 0000.0001) SETDIAG: Allocate 20 x  1 Levels for Diagnostic #  27 SALT
(PID.TID 0000.0001) SETDIAG: Allocate 20 x  1 Levels for Diagnostic #  28 RELHUM
(PID.TID 0000.0001) SETDIAG: Allocate 20 x  1 Levels for Diagnostic #  85 RCENTER
(PID.TID 0000.0001) SETDIAG: Allocate 20 x  1 Levels for Diagnostic #  26 THETA
(PID.TID 0000.0001) SETDIAG: Allocate 20 x  1 Levels for Diagnostic #  34 UVELSQ
(PID.TID 0000.0001) SETDIAG: Allocate 20 x  1 Levels for Diagnostic #  35 VVELSQ
(PID.TID 0000.0001) SETDIAG: Allocate 20 x  1 Levels for Diagnostic #  32 THETASQ
(PID.TID 0000.0001) SETDIAG: Allocate 20 x  1 Levels for Diagnostic #  36 WVELSQ
(PID.TID 0000.0001) SETDIAG: Allocate 20 x  1 Levels for Diagnostic #  64 PHIHYDSQ
(PID.TID 0000.0001) SETDIAG: Allocate 20 x  1 Levels for Diagnostic #  33 SALTSQ
(PID.TID 0000.0001) SETDIAG: Allocate 20 x  1 Levels for Diagnostic #  37 UV_VEL_C
(PID.TID 0000.0001) SETDIAG: Allocate 20 x  1 Levels for Diagnostic #  39 WU_VEL
(PID.TID 0000.0001) SETDIAG: Allocate 20 x  1 Levels for Diagnostic #  40 WV_VEL
(PID.TID 0000.0001) SETDIAG: Allocate 20 x  1 Levels for Diagnostic #  51 VVELTH
(PID.TID 0000.0001) SETDIAG: Allocate 20 x  1 Levels for Diagnostic #  52 WVELTH
(PID.TID 0000.0001) SETDIAG: Allocate 20 x  1 Levels for Diagnostic #  54 VVELSLT
(PID.TID 0000.0001) SETDIAG: Allocate 20 x  1 Levels for Diagnostic #  55 WVELSLT
(PID.TID 0000.0001) SETDIAG: Allocate 20 x  1 Levels for Diagnostic #  53 UVELSLT
(PID.TID 0000.0001) SETDIAG: Allocate 20 x  1 Levels for Diagnostic #  50 UVELTH
(PID.TID 0000.0001) SETDIAG: Allocate 20 x  1 Levels for Diagnostic #  56 UVELPHI
(PID.TID 0000.0001) SETDIAG: Allocate 20 x  1 Levels for Diagnostic #  57 VVELPHI
(PID.TID 0000.0001)   space allocated for all diagnostics:   527 levels
(PID.TID 0000.0001)   set mate pointer for diag # 163  UFLUX    , Parms: UM   164L1
(PID.TID 0000.0001)   set mate pointer for diag # 164  VFLUX    , Parms: VM   163L1
(PID.TID 0000.0001)   set mate pointer for diag # 269  U10M     , Parms: UM   270M1
(PID.TID 0000.0001)   set mate pointer for diag # 270  V10M     , Parms: VM   269M1
(PID.TID 0000.0001)   set mate pointer for diag #  29  UVEL     , Parms: UU   030MR
(PID.TID 0000.0001)   set mate pointer for diag #  30  VVEL     , Parms: VV   029MR
(PID.TID 0000.0001)   set mate pointer for diag #  34  UVELSQ   , Parms: UU   035MR
(PID.TID 0000.0001)   set mate pointer for diag #  35  VVELSQ   , Parms: VV   034MR
(PID.TID 0000.0001)   set mate pointer for diag #  37  UV_VEL_C , Parms: UM   037MR
(PID.TID 0000.0001)   set mate pointer for diag #  51  VVELTH   , Parms: VV   050MR
(PID.TID 0000.0001)   set mate pointer for diag #  54  VVELSLT  , Parms: VV   053MR
(PID.TID 0000.0001)   set mate pointer for diag #  53  UVELSLT  , Parms: UU   054MR
(PID.TID 0000.0001)   set mate pointer for diag #  50  UVELTH   , Parms: UU   051MR
(PID.TID 0000.0001)   set mate pointer for diag #  56  UVELPHI  , Parms: UU   057MR
(PID.TID 0000.0001)   set mate pointer for diag #  57  VVELPHI  , Parms: VV   056MR
(PID.TID 0000.0001) DIAGNOSTICS_SET_POINTERS: done
(PID.TID 0000.0001) ------------------------------------------------------------
(PID.TID 0000.0001) DIAGSTATS_SET_REGIONS: define no region
(PID.TID 0000.0001) ------------------------------------------------------------
(PID.TID 0000.0001) SETDIAG: Allocate  1 Levels for Stats-Diag # 210 RADSWT
(PID.TID 0000.0001) SETDIAG: Allocate  1 Levels for Stats-Diag # 233 OSR
(PID.TID 0000.0001) SETDIAG: Allocate  1 Levels for Stats-Diag # 199 OLR
(PID.TID 0000.0001) SETDIAG: Allocate  1 Levels for Stats-Diag # 372 PLALBEDO
(PID.TID 0000.0001) SETDIAG: Allocate  1 Levels for Stats-Diag # 263 CLDFRC
(PID.TID 0000.0001) SETDIAG: Allocate  1 Levels for Stats-Diag # 183 PREACC
(PID.TID 0000.0001) SETDIAG: Allocate  1 Levels for Stats-Diag # 184 PRECON
(PID.TID 0000.0001) SETDIAG: Allocate  1 Levels for Stats-Diag # 214 EVAP
(PID.TID 0000.0001) SETDIAG: Allocate  1 Levels for Stats-Diag # 167 RADSWG
(PID.TID 0000.0001) SETDIAG: Allocate  1 Levels for Stats-Diag # 343 ALBNIRDF
(PID.TID 0000.0001) SETDIAG: Allocate  1 Levels for Stats-Diag # 341 ALBVISDF
(PID.TID 0000.0001) SETDIAG: Allocate  1 Levels for Stats-Diag # 208 LWGDOWN
(PID.TID 0000.0001) SETDIAG: Allocate  1 Levels for Stats-Diag # 198 LWGUP
(PID.TID 0000.0001) SETDIAG: Allocate  1 Levels for Stats-Diag # 162 EFLUX
(PID.TID 0000.0001) SETDIAG: Allocate  1 Levels for Stats-Diag # 161 HFLUX
(PID.TID 0000.0001) SETDIAG: Allocate  1 Levels for Stats-Diag # 267 T2M
(PID.TID 0000.0001) SETDIAG: Allocate  1 Levels for Stats-Diag # 268 Q2M
(PID.TID 0000.0001) SETDIAG: Allocate  1 Levels for Stats-Diag # 163 UFLUX
(PID.TID 0000.0001) SETDIAG: Allocate  1 Levels for Stats-Diag # 164 VFLUX
(PID.TID 0000.0001) SETDIAG: Allocate  1 Levels for Stats-Diag # 269 U10M
(PID.TID 0000.0001) SETDIAG: Allocate  1 Levels for Stats-Diag # 270 V10M
(PID.TID 0000.0001) SETDIAG: Allocate  1 Levels for Stats-Diag # 241 PS
(PID.TID 0000.0001) SETDIAG: Allocate  1 Levels for Stats-Diag # 234 OSRCLR
(PID.TID 0000.0001) SETDIAG: Allocate  1 Levels for Stats-Diag # 200 OLRCLR
(PID.TID 0000.0001) SETDIAG: Allocate  1 Levels for Stats-Diag # 244 SWGCLR
(PID.TID 0000.0001) SETDIAG: Allocate  1 Levels for Stats-Diag # 201 LWGCLR
(PID.TID 0000.0001)   space allocated for all stats-diags:    26 levels
(PID.TID 0000.0001) DIAGSTATS_SET_POINTERS: done
(PID.TID 0000.0001) ------------------------------------------------------------
 Setting Alarm for: 20040321  000000,  with frequency:      60000, and Tag: diagtag01                                                                       
 Setting Alarm for: 20040321  000000,  with frequency:      60000, and Tag: diagtag02                                                                       
 Setting Alarm for: 20040321  000000,  with frequency:      60000, and Tag: diagtag03                                                                       
 Setting Alarm for: 20040321  000000,  with frequency:    1000000, and Tag: diagStg01                                                                       
(PID.TID 0000.0001) GAD_CHECK: #define ALLOW_GENERIC_ADVDIFF
(PID.TID 0000.0001) %MON fCori_max                    =   1.4535016908525E-04
(PID.TID 0000.0001) %MON fCori_min                    =  -1.4535016908525E-04
(PID.TID 0000.0001) %MON fCori_mean                   =   0.0000000000000E+00
(PID.TID 0000.0001) %MON fCori_sd                     =   8.3972192788621E-05
(PID.TID 0000.0001) %MON fCoriG_max                   =   1.4544410433286E-04
(PID.TID 0000.0001) %MON fCoriG_min                   =  -1.4544410433286E-04
(PID.TID 0000.0001) %MON fCoriG_mean                  =   0.0000000000000E+00
(PID.TID 0000.0001) %MON fCoriG_sd                    =   8.4860812167727E-05
(PID.TID 0000.0001) %MON fCoriCos_max                 =   1.4540341538469E-04
(PID.TID 0000.0001) %MON fCoriCos_min                 =   5.2264550201501E-06
(PID.TID 0000.0001) %MON fCoriCos_mean                =   1.1482595466044E-04
(PID.TID 0000.0001) %MON fCoriCos_sd                  =   3.0292878037194E-05
(PID.TID 0000.0001) INI_CG2D: CG2D normalisation factor =  9.8060549904498906E-06
(PID.TID 0000.0001) INI_CG2D: cg2dTolerance = 4.166463737598143E-10 (Area=5.0986421043E+14)
(PID.TID 0000.0001) 
(PID.TID 0000.0001) CONFIG_CHECK: OK
(PID.TID 0000.0001) // =======================================================
(PID.TID 0000.0001) // Model configuration
(PID.TID 0000.0001) // =======================================================
(PID.TID 0000.0001) //
(PID.TID 0000.0001) // "Physical" paramters ( PARM01 in namelist )
(PID.TID 0000.0001) //
(PID.TID 0000.0001) buoyancyRelation = /* Type of relation to get Buoyancy */
(PID.TID 0000.0001)               'ATMOSPHERIC'
(PID.TID 0000.0001)     ;
(PID.TID 0000.0001) fluidIsAir  =  /* fluid major constituent is Air */
(PID.TID 0000.0001)                   T
(PID.TID 0000.0001)     ;
(PID.TID 0000.0001) fluidIsWater=  /* fluid major constituent is Water */
(PID.TID 0000.0001)                   F
(PID.TID 0000.0001)     ;
(PID.TID 0000.0001) usingPCoords =  /* use p (or p*) vertical coordinate */
(PID.TID 0000.0001)                   T
(PID.TID 0000.0001)     ;
(PID.TID 0000.0001) usingZCoords =  /* use z (or z*) vertical coordinate */
(PID.TID 0000.0001)                   F
(PID.TID 0000.0001)     ;
(PID.TID 0000.0001) tRef =   /* Reference temperature profile ( oC or K ) */
(PID.TID 0000.0001)                 2.860000000000000E+02,      /* K =  1 */
(PID.TID 0000.0001)                 2.880000000000000E+02,      /* K =  2 */
(PID.TID 0000.0001)                 2.900000000000000E+02,      /* K =  3 */
(PID.TID 0000.0001)                 2.920000000000000E+02,      /* K =  4 */
(PID.TID 0000.0001)                 2.950000000000000E+02,      /* K =  5 */
(PID.TID 0000.0001)                 2.980000000000000E+02,      /* K =  6 */
(PID.TID 0000.0001)                 3.010000000000000E+02,      /* K =  7 */
(PID.TID 0000.0001)                 3.040000000000000E+02,      /* K =  8 */
(PID.TID 0000.0001)                 3.070000000000000E+02,      /* K =  9 */
(PID.TID 0000.0001)                 3.100000000000000E+02,      /* K = 10 */
(PID.TID 0000.0001)                 3.130000000000000E+02,      /* K = 11 */
(PID.TID 0000.0001)                 3.160000000000000E+02,      /* K = 12 */
(PID.TID 0000.0001)                 3.195000000000000E+02,      /* K = 13 */
(PID.TID 0000.0001)                 3.230000000000000E+02,      /* K = 14 */
(PID.TID 0000.0001)                 3.275000000000000E+02,      /* K = 15 */
(PID.TID 0000.0001)                 3.320000000000000E+02,      /* K = 16 */
(PID.TID 0000.0001)                 3.430000000000000E+02,      /* K = 17 */
(PID.TID 0000.0001)                 3.560000000000000E+02,      /* K = 18 */
(PID.TID 0000.0001)                 3.960000000000000E+02,      /* K = 19 */
(PID.TID 0000.0001)                 4.400000000000000E+02       /* K = 20 */
(PID.TID 0000.0001)     ;
(PID.TID 0000.0001) sRef =   /* Reference salinity profile ( psu ) */
(PID.TID 0000.0001)    20 @  0.000000000000000E+00              /* K =  1: 20 */
(PID.TID 0000.0001)     ;
(PID.TID 0000.0001) viscAh =   /* Lateral eddy viscosity ( m^2/s ) */
(PID.TID 0000.0001)                 0.000000000000000E+00
(PID.TID 0000.0001)     ;
(PID.TID 0000.0001) viscAhMax =   /* Maximum lateral eddy viscosity ( m^2/s ) */
(PID.TID 0000.0001)                 1.000000000000000E+21
(PID.TID 0000.0001)     ;
(PID.TID 0000.0001) viscAhGrid =   /* Grid dependent lateral eddy viscosity ( non-dim. ) */
(PID.TID 0000.0001)                 0.000000000000000E+00
(PID.TID 0000.0001)     ;
(PID.TID 0000.0001) useFullLeith =   /* Use Full Form of Leith Viscosity on/off flag*/
(PID.TID 0000.0001)                   F
(PID.TID 0000.0001)     ;
(PID.TID 0000.0001) useStrainTensionVisc =   /* Use StrainTension Form of Viscous Operator on/off flag*/
(PID.TID 0000.0001)                   F
(PID.TID 0000.0001)     ;
(PID.TID 0000.0001) useAreaViscLength =   /* Use area for visc length instead of geom. mean*/
(PID.TID 0000.0001)                   F
(PID.TID 0000.0001)     ;
(PID.TID 0000.0001) viscC2leith = /* Leith harmonic visc. factor (on grad(vort),non-dim.) */
(PID.TID 0000.0001)                 0.000000000000000E+00
(PID.TID 0000.0001)     ;
(PID.TID 0000.0001) viscC2leithD = /* Leith harmonic viscosity factor (on grad(div),non-dim.) */
(PID.TID 0000.0001)                 0.000000000000000E+00
(PID.TID 0000.0001)     ;
(PID.TID 0000.0001) viscC2smag =   /* Smagorinsky harmonic viscosity factor (non-dim.) */
(PID.TID 0000.0001)                 0.000000000000000E+00
(PID.TID 0000.0001)     ;
(PID.TID 0000.0001) viscA4 =   /* Lateral biharmonic viscosity ( m^4/s ) */
(PID.TID 0000.0001)                 0.000000000000000E+00
(PID.TID 0000.0001)     ;
(PID.TID 0000.0001) viscA4Max =   /* Maximum biharmonic viscosity ( m^2/s ) */
(PID.TID 0000.0001)                 1.000000000000000E+21
(PID.TID 0000.0001)     ;
(PID.TID 0000.0001) viscA4Grid =   /* Grid dependent biharmonic viscosity ( non-dim. ) */
(PID.TID 0000.0001)                 0.000000000000000E+00
(PID.TID 0000.0001)     ;
(PID.TID 0000.0001) viscC4leith = /* Leith biharm viscosity factor (on grad(vort), non-dim.) */
(PID.TID 0000.0001)                 0.000000000000000E+00
(PID.TID 0000.0001)     ;
(PID.TID 0000.0001) viscC4leithD = /* Leith biharm viscosity factor (on grad(div), non-dim.) */
(PID.TID 0000.0001)                 0.000000000000000E+00
(PID.TID 0000.0001)     ;
(PID.TID 0000.0001) viscC4Smag = /* Smagorinsky biharm viscosity factor (non-dim) */
(PID.TID 0000.0001)                 0.000000000000000E+00
(PID.TID 0000.0001)     ;
(PID.TID 0000.0001) no_slip_sides =  /* Viscous BCs: No-slip sides */
(PID.TID 0000.0001)                   F
(PID.TID 0000.0001)     ;
(PID.TID 0000.0001) sideDragFactor = /* side-drag scaling factor (non-dim) */
(PID.TID 0000.0001)                 2.000000000000000E+00
(PID.TID 0000.0001)     ;
(PID.TID 0000.0001) viscAr =   /* Vertical eddy viscosity ( units of r^2/s ) */
(PID.TID 0000.0001)                 0.000000000000000E+00
(PID.TID 0000.0001)     ;
(PID.TID 0000.0001) no_slip_bottom =  /* Viscous BCs: No-slip bottom */
(PID.TID 0000.0001)                   F
(PID.TID 0000.0001)     ;
(PID.TID 0000.0001) bottomDragLinear = /* linear bottom-drag coefficient ( 1/s ) */
(PID.TID 0000.0001)                 0.000000000000000E+00
(PID.TID 0000.0001)     ;
(PID.TID 0000.0001) bottomDragQuadratic = /* quadratic bottom-drag coeff. ( 1/m ) */
(PID.TID 0000.0001)                 0.000000000000000E+00
(PID.TID 0000.0001)     ;
(PID.TID 0000.0001) diffKhT =   /* Laplacian diffusion of heat laterally ( m^2/s ) */
(PID.TID 0000.0001)                 0.000000000000000E+00
(PID.TID 0000.0001)     ;
(PID.TID 0000.0001) diffK4T =   /* Bihaarmonic diffusion of heat laterally ( m^4/s ) */
(PID.TID 0000.0001)                 0.000000000000000E+00
(PID.TID 0000.0001)     ;
(PID.TID 0000.0001) diffKhS =   /* Laplacian diffusion of salt laterally ( m^2/s ) */
(PID.TID 0000.0001)                 0.000000000000000E+00
(PID.TID 0000.0001)     ;
(PID.TID 0000.0001) diffK4S =   /* Bihaarmonic diffusion of salt laterally ( m^4/s ) */
(PID.TID 0000.0001)                 0.000000000000000E+00
(PID.TID 0000.0001)     ;
(PID.TID 0000.0001) diffKrNrT = /* vertical profile of vertical diffusion of Temp ( m^2/s )*/
(PID.TID 0000.0001)    20 @  0.000000000000000E+00              /* K =  1: 20 */
(PID.TID 0000.0001)     ;
(PID.TID 0000.0001) diffKrNrS = /* vertical profile of vertical diffusion of Salt ( m^2/s )*/
(PID.TID 0000.0001)    20 @  0.000000000000000E+00              /* K =  1: 20 */
(PID.TID 0000.0001)     ;
(PID.TID 0000.0001) diffKrBL79surf =   /* Surface diffusion for Bryan and Lewis 1979 ( m^2/s ) */
(PID.TID 0000.0001)                 0.000000000000000E+00
(PID.TID 0000.0001)     ;
(PID.TID 0000.0001) diffKrBL79deep =   /* Deep diffusion for Bryan and Lewis 1979 ( m^2/s ) */
(PID.TID 0000.0001)                 0.000000000000000E+00
(PID.TID 0000.0001)     ;
(PID.TID 0000.0001) diffKrBL79scl =   /* Depth scale for Bryan and Lewis 1979 ( m ) */
(PID.TID 0000.0001)                 2.000000000000000E+02
(PID.TID 0000.0001)     ;
(PID.TID 0000.0001) diffKrBL79Ho =   /* Turning depth for Bryan and Lewis 1979 ( m ) */
(PID.TID 0000.0001)                -2.000000000000000E+03
(PID.TID 0000.0001)     ;
(PID.TID 0000.0001) ivdc_kappa = /* Implicit Vertical Diffusivity for Convection ( m^2/s ) */
(PID.TID 0000.0001)                 0.000000000000000E+00
(PID.TID 0000.0001)     ;
(PID.TID 0000.0001) hMixCriteria=  /* Criteria for mixed-layer diagnostic */
(PID.TID 0000.0001)                -8.000000000000000E-01
(PID.TID 0000.0001)     ;
(PID.TID 0000.0001) eosType =  /* Type of Equation of State */
(PID.TID 0000.0001)               'IDEALG'
(PID.TID 0000.0001)     ;
(PID.TID 0000.0001) tAlpha =   /* Linear EOS thermal expansion coefficient ( 1/oC ) */
(PID.TID 0000.0001)                 1.234567000000000E+05
(PID.TID 0000.0001)     ;
(PID.TID 0000.0001) sBeta =   /* Linear EOS haline contraction coefficient ( 1/psu ) */
(PID.TID 0000.0001)                 1.234567000000000E+05
(PID.TID 0000.0001)     ;
(PID.TID 0000.0001) atm_Rd =  /* gas constant for dry air ( J/kg/K ) */
(PID.TID 0000.0001)                 2.868571428571428E+02
(PID.TID 0000.0001)     ;
(PID.TID 0000.0001) atm_Cp =  /* specific heat (Cp) of dry air ( J/kg/K ) */
(PID.TID 0000.0001)                 1.004000000000000E+03
(PID.TID 0000.0001)     ;
(PID.TID 0000.0001) atm_kappa =  /* kappa (=Rd/Cp ) of dry air */
(PID.TID 0000.0001)                 2.857142857142857E-01
(PID.TID 0000.0001)     ;
(PID.TID 0000.0001) atm_Rq = /* water vap. specific vol. anomaly relative to dry air */
(PID.TID 0000.0001)                 6.078000000000000E-01
(PID.TID 0000.0001)     ;
(PID.TID 0000.0001) atm_Po =  /* standard reference pressure ( Pa ) */
(PID.TID 0000.0001)                 1.000000000000000E+05
(PID.TID 0000.0001)     ;
(PID.TID 0000.0001) integr_GeoPot =  /* select how the geopotential is integrated */
(PID.TID 0000.0001)                       2
(PID.TID 0000.0001)     ;
(PID.TID 0000.0001) selectFindRoSurf=  /* select how Surf.Ref. pressure is defined */
(PID.TID 0000.0001)                       0
(PID.TID 0000.0001)     ;
(PID.TID 0000.0001) rhonil =   /* Reference density ( kg/m^3 ) */
(PID.TID 0000.0001)                 1.000000000000000E+00
(PID.TID 0000.0001)     ;
(PID.TID 0000.0001) rhoConst =   /* Reference density ( kg/m^3 ) */
(PID.TID 0000.0001)                 1.000000000000000E+00
(PID.TID 0000.0001)     ;
(PID.TID 0000.0001) rhoFacC = /* normalized Reference density @ cell-Center (-) */
(PID.TID 0000.0001)    20 @  1.000000000000000E+00              /* K =  1: 20 */
(PID.TID 0000.0001)     ;
(PID.TID 0000.0001) rhoFacF = /* normalized Reference density @ W-Interface (-) */
(PID.TID 0000.0001)    21 @  1.000000000000000E+00              /* K =  1: 21 */
(PID.TID 0000.0001)     ;
(PID.TID 0000.0001) rhoConstFresh =   /* Reference density ( kg/m^3 ) */
(PID.TID 0000.0001)                 1.000000000000000E+00
(PID.TID 0000.0001)     ;
(PID.TID 0000.0001) gravity =   /* Gravitational acceleration ( m/s^2 ) */
(PID.TID 0000.0001)                 9.810000000000001E+00
(PID.TID 0000.0001)     ;
(PID.TID 0000.0001) gBaro =   /* Barotropic gravity ( m/s^2 ) */
(PID.TID 0000.0001)                 9.810000000000001E+00
(PID.TID 0000.0001)     ;
(PID.TID 0000.0001) rotationPeriod =   /* Rotation Period ( s ) */
(PID.TID 0000.0001)                 8.640000000000000E+04
(PID.TID 0000.0001)     ;
(PID.TID 0000.0001) omega =   /* Angular velocity ( rad/s ) */
(PID.TID 0000.0001)                 7.272205216643039E-05
(PID.TID 0000.0001)     ;
(PID.TID 0000.0001) f0 =   /* Reference coriolis parameter ( 1/s ) */
(PID.TID 0000.0001)                 1.000000000000000E-04
(PID.TID 0000.0001)     ;
(PID.TID 0000.0001) beta =   /* Beta ( 1/(m.s) ) */
(PID.TID 0000.0001)                 9.999999999999998E-12
(PID.TID 0000.0001)     ;
(PID.TID 0000.0001) freeSurfFac =   /* Implicit free surface factor */
(PID.TID 0000.0001)                 1.000000000000000E+00
(PID.TID 0000.0001)     ;
(PID.TID 0000.0001) implicitFreeSurface =   /* Implicit free surface on/off flag */
(PID.TID 0000.0001)                   T
(PID.TID 0000.0001)     ;
(PID.TID 0000.0001) rigidLid =   /* Rigid lid on/off flag */
(PID.TID 0000.0001)                   F
(PID.TID 0000.0001)     ;
(PID.TID 0000.0001) implicSurfPress =   /* Surface Pressure implicit factor (0-1)*/
(PID.TID 0000.0001)                 1.000000000000000E+00
(PID.TID 0000.0001)     ;
(PID.TID 0000.0001) implicDiv2Dflow =   /* Barot. Flow Div. implicit factor (0-1)*/
(PID.TID 0000.0001)                 1.000000000000000E+00
(PID.TID 0000.0001)     ;
(PID.TID 0000.0001) exactConserv =   /* Exact Volume Conservation on/off flag*/
(PID.TID 0000.0001)                   T
(PID.TID 0000.0001)     ;
(PID.TID 0000.0001) linFSConserveTr =   /* Tracer correction for Lin Free Surface on/off flag*/
(PID.TID 0000.0001)                   F
(PID.TID 0000.0001)     ;
(PID.TID 0000.0001) uniformLin_PhiSurf =   /* use uniform Bo_surf on/off flag*/
(PID.TID 0000.0001)                   F
(PID.TID 0000.0001)     ;
(PID.TID 0000.0001) nonlinFreeSurf =   /* Non-linear Free Surf. options (-1,0,1,2,3)*/
(PID.TID 0000.0001)                       4
(PID.TID 0000.0001)     ;
(PID.TID 0000.0001)      -1,0= Off ; 1,2,3= On, 2=+rescale gU,gV, 3=+update cg2d solv.
(PID.TID 0000.0001) hFacInf =   /* lower threshold for hFac (nonlinFreeSurf only)*/
(PID.TID 0000.0001)                 2.000000000000000E-01
(PID.TID 0000.0001)     ;
(PID.TID 0000.0001) hFacSup =   /* upper threshold for hFac (nonlinFreeSurf only)*/
(PID.TID 0000.0001)                 2.000000000000000E+00
(PID.TID 0000.0001)     ;
(PID.TID 0000.0001) select_rStar =   /* r* Coordinate options (not yet implemented)*/
(PID.TID 0000.0001)                       2
(PID.TID 0000.0001)     ;
(PID.TID 0000.0001) useRealFreshWaterFlux =   /* Real Fresh Water Flux on/off flag*/
(PID.TID 0000.0001)                   F
(PID.TID 0000.0001)     ;
(PID.TID 0000.0001) convertFW2Salt = /* convert F.W. Flux to Salt Flux (-1=use local S)(ppt)*/
(PID.TID 0000.0001)                 3.500000000000000E+01
(PID.TID 0000.0001)     ;
(PID.TID 0000.0001) use3Dsolver = /* use 3-D pressure solver on/off flag */
(PID.TID 0000.0001)                   F
(PID.TID 0000.0001)     ;
(PID.TID 0000.0001) nonHydrostatic =  /* Non-Hydrostatic on/off flag */
(PID.TID 0000.0001)                   F
(PID.TID 0000.0001)     ;
(PID.TID 0000.0001) nh_Am2 = /* Non-Hydrostatic terms scaling factor */
(PID.TID 0000.0001)                 1.000000000000000E+00
(PID.TID 0000.0001)     ;
(PID.TID 0000.0001) quasiHydrostatic = /* Quasi-Hydrostatic on/off flag */
(PID.TID 0000.0001)                   F
(PID.TID 0000.0001)     ;
(PID.TID 0000.0001) momStepping =  /* Momentum equation on/off flag */
(PID.TID 0000.0001)                   T
(PID.TID 0000.0001)     ;
(PID.TID 0000.0001) vectorInvariantMomentum= /* Vector-Invariant Momentum on/off */
(PID.TID 0000.0001)                   T
(PID.TID 0000.0001)     ;
(PID.TID 0000.0001) momAdvection =  /* Momentum advection on/off flag */
(PID.TID 0000.0001)                   T
(PID.TID 0000.0001)     ;
(PID.TID 0000.0001) momViscosity =  /* Momentum viscosity on/off flag */
(PID.TID 0000.0001)                   T
(PID.TID 0000.0001)     ;
(PID.TID 0000.0001) momImplVertAdv =/* Momentum implicit vert. advection on/off*/
(PID.TID 0000.0001)                   F
(PID.TID 0000.0001)     ;
(PID.TID 0000.0001) implicitViscosity = /* Implicit viscosity on/off flag */
(PID.TID 0000.0001)                   F
(PID.TID 0000.0001)     ;
(PID.TID 0000.0001) metricTerms =  /* metric-Terms on/off flag */
(PID.TID 0000.0001)                   F
(PID.TID 0000.0001)     ;
(PID.TID 0000.0001) useNHMTerms = /* Non-Hydrostatic Metric-Terms on/off */
(PID.TID 0000.0001)                   F
(PID.TID 0000.0001)     ;
(PID.TID 0000.0001) useConstantF =  /* use Constant f0 Coriolis flag */
(PID.TID 0000.0001)                   F
(PID.TID 0000.0001)     ;
(PID.TID 0000.0001) useBetaPlaneF = /* use Beta-Plane Coriolis flag */
(PID.TID 0000.0001)                   F
(PID.TID 0000.0001)     ;
(PID.TID 0000.0001) useSphereF  =   /* use Spherical Coriolis flag */
(PID.TID 0000.0001)                   T
(PID.TID 0000.0001)     ;
(PID.TID 0000.0001) use3dCoriolis = /* 3-D Coriolis on/off flag */
(PID.TID 0000.0001)                   F
(PID.TID 0000.0001)     ;
(PID.TID 0000.0001) useCoriolis =  /* Coriolis on/off flag */
(PID.TID 0000.0001)                   T
(PID.TID 0000.0001)     ;
(PID.TID 0000.0001) useCDscheme =  /* CD scheme on/off flag */
(PID.TID 0000.0001)                   F
(PID.TID 0000.0001)     ;
(PID.TID 0000.0001) useJamartWetPoints= /* Coriolis WetPoints method flag */
(PID.TID 0000.0001)                   F
(PID.TID 0000.0001)     ;
(PID.TID 0000.0001) useJamartMomAdv= /* V.I. Non-linear terms Jamart flag */
(PID.TID 0000.0001)                   F
(PID.TID 0000.0001)     ;
(PID.TID 0000.0001) SadournyCoriolis= /* Sadourny Coriolis discr. flag */
(PID.TID 0000.0001)                   T
(PID.TID 0000.0001)     ;
(PID.TID 0000.0001) upwindVorticity= /* Upwind bias vorticity flag */
(PID.TID 0000.0001)                   F
(PID.TID 0000.0001)     ;
(PID.TID 0000.0001) useAbsVorticity= /* Work with f+zeta in Coriolis */
(PID.TID 0000.0001)                   T
(PID.TID 0000.0001)     ;
(PID.TID 0000.0001) highOrderVorticity= /* High order interp. of vort. flag */
(PID.TID 0000.0001)                   F
(PID.TID 0000.0001)     ;
(PID.TID 0000.0001) upwindShear= /* Upwind vertical Shear advection flag */
(PID.TID 0000.0001)                   F
(PID.TID 0000.0001)     ;
(PID.TID 0000.0001) selectKEscheme= /* Kinetic Energy scheme selector */
(PID.TID 0000.0001)                       3
(PID.TID 0000.0001)     ;
(PID.TID 0000.0001) momForcing =  /* Momentum forcing on/off flag */
(PID.TID 0000.0001)                   T
(PID.TID 0000.0001)     ;
(PID.TID 0000.0001) momPressureForcing =  /* Momentum pressure term on/off flag */
(PID.TID 0000.0001)                   T
(PID.TID 0000.0001)     ;
(PID.TID 0000.0001) implicitIntGravWave= /* Implicit Internal Gravity Wave flag */
(PID.TID 0000.0001)                   F
(PID.TID 0000.0001)     ;
(PID.TID 0000.0001) staggerTimeStep =   /* Stagger time stepping on/off flag */
(PID.TID 0000.0001)                   T
(PID.TID 0000.0001)     ;
(PID.TID 0000.0001) multiDimAdvection =   /* enable/disable Multi-Dim Advection */
(PID.TID 0000.0001)                   T
(PID.TID 0000.0001)     ;
(PID.TID 0000.0001) useMultiDimAdvec =   /* Multi-Dim Advection is/is-not used */
(PID.TID 0000.0001)                   F
(PID.TID 0000.0001)     ;
(PID.TID 0000.0001) implicitDiffusion =/* Implicit Diffusion on/off flag */
(PID.TID 0000.0001)                   F
(PID.TID 0000.0001)     ;
(PID.TID 0000.0001) tempStepping =  /* Temperature equation on/off flag */
(PID.TID 0000.0001)                   T
(PID.TID 0000.0001)     ;
(PID.TID 0000.0001) tempAdvection=  /* Temperature advection on/off flag */
(PID.TID 0000.0001)                   T
(PID.TID 0000.0001)     ;
(PID.TID 0000.0001) tempImplVertAdv =/* Temp. implicit vert. advection on/off */
(PID.TID 0000.0001)                   F
(PID.TID 0000.0001)     ;
(PID.TID 0000.0001) tempForcing  =  /* Temperature forcing on/off flag */
(PID.TID 0000.0001)                   T
(PID.TID 0000.0001)     ;
(PID.TID 0000.0001) saltStepping =  /* Salinity equation on/off flag */
(PID.TID 0000.0001)                   T
(PID.TID 0000.0001)     ;
(PID.TID 0000.0001) saltAdvection=  /* Salinity advection on/off flag */
(PID.TID 0000.0001)                   T
(PID.TID 0000.0001)     ;
(PID.TID 0000.0001) saltImplVertAdv =/* Sali. implicit vert. advection on/off */
(PID.TID 0000.0001)                   F
(PID.TID 0000.0001)     ;
(PID.TID 0000.0001) saltForcing  =  /* Salinity forcing on/off flag */
(PID.TID 0000.0001)                   T
(PID.TID 0000.0001)     ;
(PID.TID 0000.0001)  readBinaryPrec = /* Precision used for reading binary files */
(PID.TID 0000.0001)                      64
(PID.TID 0000.0001)     ;
(PID.TID 0000.0001) writeBinaryPrec = /* Precision used for writing binary files */
(PID.TID 0000.0001)                      64
(PID.TID 0000.0001)     ;
(PID.TID 0000.0001)  globalFiles = /* write "global" (=not per tile) files */
(PID.TID 0000.0001)                   F
(PID.TID 0000.0001)     ;
(PID.TID 0000.0001)  useSingleCpuIO = /* only master MPI process does I/O */
(PID.TID 0000.0001)                   F
(PID.TID 0000.0001)     ;
(PID.TID 0000.0001)  debugMode  =  /* Debug Mode on/off flag */
(PID.TID 0000.0001)                   F
(PID.TID 0000.0001)     ;
(PID.TID 0000.0001)    debLevA  =  /* 1rst level of debugging */
(PID.TID 0000.0001)                       1
(PID.TID 0000.0001)     ;
(PID.TID 0000.0001)    debLevB  =  /* 2nd  level of debugging */
(PID.TID 0000.0001)                       2
(PID.TID 0000.0001)     ;
(PID.TID 0000.0001)  debugLevel =  /* select debugging level */
(PID.TID 0000.0001)                       1
(PID.TID 0000.0001)     ;
(PID.TID 0000.0001) //
(PID.TID 0000.0001) // Elliptic solver(s) paramters ( PARM02 in namelist )
(PID.TID 0000.0001) //
(PID.TID 0000.0001) cg2dMaxIters =   /* Upper limit on 2d con. grad iterations  */
(PID.TID 0000.0001)                     200
(PID.TID 0000.0001)     ;
(PID.TID 0000.0001) cg2dChkResFreq =   /* 2d con. grad convergence test frequency */
(PID.TID 0000.0001)                       1
(PID.TID 0000.0001)     ;
(PID.TID 0000.0001) cg2dTargetResidual =   /* 2d con. grad target residual  */
(PID.TID 0000.0001)                 1.000000000000000E-07
(PID.TID 0000.0001)     ;
(PID.TID 0000.0001) cg2dTargetResWunit =   /* CG2d target residual [W units] */
(PID.TID 0000.0001)                 1.000000000000001E-17
(PID.TID 0000.0001)     ;
(PID.TID 0000.0001) cg2dPreCondFreq =   /* Freq. for updating cg2d preconditioner */
(PID.TID 0000.0001)                       1
(PID.TID 0000.0001)     ;
(PID.TID 0000.0001) //
(PID.TID 0000.0001) // Time stepping paramters ( PARM03 in namelist )
(PID.TID 0000.0001) //
(PID.TID 0000.0001) nIter0 =   /* Run starting timestep number  */
(PID.TID 0000.0001)                       0
(PID.TID 0000.0001)     ;
(PID.TID 0000.0001) nTimeSteps =   /* Number of timesteps */
(PID.TID 0000.0001)                      15
(PID.TID 0000.0001)     ;
(PID.TID 0000.0001) deltaTmom =   /* Momentum equation timestep ( s ) */
(PID.TID 0000.0001)                 1.200000000000000E+02
(PID.TID 0000.0001)     ;
(PID.TID 0000.0001) deltaTfreesurf =   /* FreeSurface equation timestep ( s ) */
(PID.TID 0000.0001)                 1.200000000000000E+02
(PID.TID 0000.0001)     ;
(PID.TID 0000.0001) dTtracerLev =   /* Tracer equation timestep ( s ) */
(PID.TID 0000.0001)    20 @  1.200000000000000E+02              /* K =  1: 20 */
(PID.TID 0000.0001)     ;
(PID.TID 0000.0001) deltaTClock  =   /* Model clock timestep ( s ) */
(PID.TID 0000.0001)                 1.200000000000000E+02
(PID.TID 0000.0001)     ;
(PID.TID 0000.0001) cAdjFreq =   /* Convective adjustment interval ( s ) */
(PID.TID 0000.0001)                 0.000000000000000E+00
(PID.TID 0000.0001)     ;
(PID.TID 0000.0001) momForcingOutAB = /* =1: take Momentum Forcing out of Adams-Bash. stepping */
(PID.TID 0000.0001)                       1
(PID.TID 0000.0001)     ;
(PID.TID 0000.0001) tracForcingOutAB = /* =1: take T,S,pTr Forcing out of Adams-Bash. stepping */
(PID.TID 0000.0001)                       1
(PID.TID 0000.0001)     ;
(PID.TID 0000.0001) momDissip_In_AB = /* put Dissipation Tendency in Adams-Bash. stepping */
(PID.TID 0000.0001)                   T
(PID.TID 0000.0001)     ;
(PID.TID 0000.0001) doAB_onGtGs = /* apply AB on Tendencies (rather than on T,S)*/
(PID.TID 0000.0001)                   T
(PID.TID 0000.0001)     ;
(PID.TID 0000.0001) abEps =   /* Adams-Bashforth-2 stabilizing weight */
(PID.TID 0000.0001)                 1.000000000000000E-01
(PID.TID 0000.0001)     ;
(PID.TID 0000.0001) baseTime =   /* Model base time ( s ). */
(PID.TID 0000.0001)                 0.000000000000000E+00
(PID.TID 0000.0001)     ;
(PID.TID 0000.0001) startTime =   /* Run start time ( s ). */
(PID.TID 0000.0001)                 0.000000000000000E+00
(PID.TID 0000.0001)     ;
(PID.TID 0000.0001) endTime =   /* Integration ending time ( s ). */
(PID.TID 0000.0001)                 1.800000000000000E+03
(PID.TID 0000.0001)     ;
(PID.TID 0000.0001) pChkPtFreq =   /* Permanent restart/checkpoint file interval ( s ). */
(PID.TID 0000.0001)                 0.000000000000000E+00
(PID.TID 0000.0001)     ;
(PID.TID 0000.0001) chkPtFreq =   /* Rolling restart/checkpoint file interval ( s ). */
(PID.TID 0000.0001)                 0.000000000000000E+00
(PID.TID 0000.0001)     ;
(PID.TID 0000.0001) pickup_write_mdsio =   /* Model IO flag. */
(PID.TID 0000.0001)                   T
(PID.TID 0000.0001)     ;
(PID.TID 0000.0001) pickup_read_mdsio =   /* Model IO flag. */
(PID.TID 0000.0001)                   T
(PID.TID 0000.0001)     ;
(PID.TID 0000.0001) pickup_write_mnc =   /* Model IO flag. */
(PID.TID 0000.0001)                   F
(PID.TID 0000.0001)     ;
(PID.TID 0000.0001) pickup_read_mnc =   /* Model IO flag. */
(PID.TID 0000.0001)                   F
(PID.TID 0000.0001)     ;
(PID.TID 0000.0001) pickup_write_immed =   /* Model IO flag. */
(PID.TID 0000.0001)                   F
(PID.TID 0000.0001)     ;
(PID.TID 0000.0001) dumpFreq =   /* Model state write out interval ( s ). */
(PID.TID 0000.0001)                 0.000000000000000E+00
(PID.TID 0000.0001)     ;
(PID.TID 0000.0001) dumpInitAndLast= /* write out Initial & Last iter. model state */
(PID.TID 0000.0001)                   T
(PID.TID 0000.0001)     ;
(PID.TID 0000.0001) snapshot_mdsio =   /* Model IO flag. */
(PID.TID 0000.0001)                   F
(PID.TID 0000.0001)     ;
(PID.TID 0000.0001) snapshot_mnc =   /* Model IO flag. */
(PID.TID 0000.0001)                   T
(PID.TID 0000.0001)     ;
(PID.TID 0000.0001) monitorFreq =   /* Monitor output interval ( s ). */
(PID.TID 0000.0001)                 1.000000000000000E+00
(PID.TID 0000.0001)     ;
(PID.TID 0000.0001) monitor_stdio =   /* Model IO flag. */
(PID.TID 0000.0001)                   T
(PID.TID 0000.0001)     ;
(PID.TID 0000.0001) monitor_mnc =   /* Model IO flag. */
(PID.TID 0000.0001)                   F
(PID.TID 0000.0001)     ;
(PID.TID 0000.0001) externForcingPeriod =   /* forcing period (s) */
(PID.TID 0000.0001)                 0.000000000000000E+00
(PID.TID 0000.0001)     ;
(PID.TID 0000.0001) externForcingCycle =   /* period of the cyle (s). */
(PID.TID 0000.0001)                 0.000000000000000E+00
(PID.TID 0000.0001)     ;
(PID.TID 0000.0001) tauThetaClimRelax =   /* relaxation time scale (s) */
(PID.TID 0000.0001)                 0.000000000000000E+00
(PID.TID 0000.0001)     ;
(PID.TID 0000.0001) tauSaltClimRelax =   /* relaxation time scale (s) */
(PID.TID 0000.0001)                 0.000000000000000E+00
(PID.TID 0000.0001)     ;
(PID.TID 0000.0001) latBandClimRelax =   /* max. Lat. where relaxation */
(PID.TID 0000.0001)                 1.800000000000000E+02
(PID.TID 0000.0001)     ;
(PID.TID 0000.0001) //
(PID.TID 0000.0001) // Gridding paramters ( PARM04 in namelist )
(PID.TID 0000.0001) //
(PID.TID 0000.0001) usingCartesianGrid = /* Cartesian coordinates flag ( True/False ) */
(PID.TID 0000.0001)                   F
(PID.TID 0000.0001)     ;
(PID.TID 0000.0001) usingCylindricalGrid = /* Cylindrical coordinates flag ( True/False ) */
(PID.TID 0000.0001)                   F
(PID.TID 0000.0001)     ;
(PID.TID 0000.0001) usingSphericalPolarGrid = /* Spherical coordinates flag ( True/False ) */
(PID.TID 0000.0001)                   F
(PID.TID 0000.0001)     ;
(PID.TID 0000.0001) usingCurvilinearGrid = /* Curvilinear coordinates flag ( True/False ) */
(PID.TID 0000.0001)                   T
(PID.TID 0000.0001)     ;
(PID.TID 0000.0001) Ro_SeaLevel = /* r(1) ( units of r ) */
(PID.TID 0000.0001)                 1.010800000000000E+05
(PID.TID 0000.0001)     ;
(PID.TID 0000.0001) rkSign =   /* index orientation relative to vertical coordinate */
(PID.TID 0000.0001)                -1.000000000000000E+00
(PID.TID 0000.0001)     ;
(PID.TID 0000.0001) gravitySign = /* gravity orientation relative to vertical coordinate */
(PID.TID 0000.0001)                 1.000000000000000E+00
(PID.TID 0000.0001)     ;
(PID.TID 0000.0001) horiVertRatio =   /* Ratio on units : Horiz - Vertical */
(PID.TID 0000.0001)                 9.810000000000001E+00
(PID.TID 0000.0001)     ;
(PID.TID 0000.0001) drC =   /* C spacing ( units of r ) */
(PID.TID 0000.0001)                 2.527000000000000E+03,      /* K =  1 */
(PID.TID 0000.0001)    19 @  5.054000000000000E+03              /* K =  2: 20 */
(PID.TID 0000.0001)     ;
(PID.TID 0000.0001) drF =   /* W spacing ( units of r ) */
(PID.TID 0000.0001)    20 @  5.054000000000000E+03              /* K =  1: 20 */
(PID.TID 0000.0001)     ;
(PID.TID 0000.0001) delX =   /* U spacing ( m - cartesian, degrees - spherical ) */
(PID.TID 0000.0001)   192 @  1.234567000000000E+05              /* I =  1:192 */
(PID.TID 0000.0001)     ;
(PID.TID 0000.0001) delY =   /* V spacing ( m - cartesian, degrees - spherical ) */
(PID.TID 0000.0001)    32 @  1.234567000000000E+05              /* J =  1: 32 */
(PID.TID 0000.0001)     ;
(PID.TID 0000.0001) phiMin =    /* South edge (ignored - cartesian, degrees - spherical ) */
(PID.TID 0000.0001)                 0.000000000000000E+00
(PID.TID 0000.0001)     ;
(PID.TID 0000.0001) thetaMin =    /* West edge ( ignored - cartesian, degrees - spherical ) */
(PID.TID 0000.0001)                 0.000000000000000E+00
(PID.TID 0000.0001)     ;
(PID.TID 0000.0001) rSphere =  /* Radius ( ignored - cartesian, m - spherical ) */
(PID.TID 0000.0001)                 6.371000000000000E+06
(PID.TID 0000.0001)     ;
(PID.TID 0000.0001) deepAtmosphere = /* Deep/Shallow Atmosphere flag (True/False) */
(PID.TID 0000.0001)                   F
(PID.TID 0000.0001)     ;
(PID.TID 0000.0001) xcoord =   /* P-point X coord ( m - cartesian, degrees - spherical ) */
(PID.TID 0000.0001)                -4.439521994760536E+01,      /* I =  1 */
(PID.TID 0000.0001)                -4.295641272275883E+01,      /* I =  2 */
(PID.TID 0000.0001)                -4.122055553388957E+01,      /* I =  3 */
(PID.TID 0000.0001)                -3.923446288487304E+01,      /* I =  4 */
(PID.TID 0000.0001)                -3.702585158682200E+01,      /* I =  5 */
(PID.TID 0000.0001)                -3.461179367094151E+01,      /* I =  6 */
(PID.TID 0000.0001)                -3.200434569041793E+01,      /* I =  7 */
(PID.TID 0000.0001)                -2.921355965632675E+01,      /* I =  8 */
(PID.TID 0000.0001)                -2.624932223028290E+01,      /* I =  9 */
(PID.TID 0000.0001)                -2.312261250426344E+01,      /* I = 10 */
(PID.TID 0000.0001)                -1.984640717127058E+01,      /* I = 11 */
(PID.TID 0000.0001)                -1.643630800555134E+01,      /* I = 12 */
(PID.TID 0000.0001)                -1.291089806302069E+01,      /* I = 13 */
(PID.TID 0000.0001)                -9.291807802719402E+00,      /* I = 14 */
(PID.TID 0000.0001)                -5.603475335822332E+00,      /* I = 15 */
(PID.TID 0000.0001)                -1.872608513033445E+00,      /* I = 16 */
(PID.TID 0000.0001)                 1.872608513033445E+00,      /* I = 17 */
(PID.TID 0000.0001)                 5.603475335822332E+00,      /* I = 18 */
(PID.TID 0000.0001)                 9.291807802719402E+00,      /* I = 19 */
(PID.TID 0000.0001)                 1.291089806302069E+01,      /* I = 20 */
(PID.TID 0000.0001)                 1.643630800555134E+01,      /* I = 21 */
(PID.TID 0000.0001)                 1.984640717127058E+01,      /* I = 22 */
(PID.TID 0000.0001)                 2.312261250426344E+01,      /* I = 23 */
(PID.TID 0000.0001)                 2.624932223028290E+01,      /* I = 24 */
(PID.TID 0000.0001)                 2.921355965632675E+01,      /* I = 25 */
(PID.TID 0000.0001)                 3.200434569041793E+01,      /* I = 26 */
(PID.TID 0000.0001)                 3.461179367094151E+01,      /* I = 27 */
(PID.TID 0000.0001)                 3.702585158682200E+01,      /* I = 28 */
(PID.TID 0000.0001)                 3.923446288487304E+01,      /* I = 29 */
(PID.TID 0000.0001)                 4.122055553388957E+01,      /* I = 30 */
(PID.TID 0000.0001)                 4.295641272275883E+01,      /* I = 31 */
(PID.TID 0000.0001)                 4.439521994760536E+01,      /* I = 32 */
(PID.TID 0000.0001)                 4.560478005239465E+01,      /* I = 33 */
(PID.TID 0000.0001)                 4.704358727724117E+01,      /* I = 34 */
(PID.TID 0000.0001)                 4.877944446611043E+01,      /* I = 35 */
(PID.TID 0000.0001)                 5.076553711512697E+01,      /* I = 36 */
(PID.TID 0000.0001)                 5.297414841317801E+01,      /* I = 37 */
(PID.TID 0000.0001)                 5.538820632905850E+01,      /* I = 38 */
(PID.TID 0000.0001)                 5.799565430958209E+01,      /* I = 39 */
(PID.TID 0000.0001)                 6.078644034367325E+01,      /* I = 40 */
(PID.TID 0000.0001)                 6.375067776971711E+01,      /* I = 41 */
(PID.TID 0000.0001)                 6.687738749573657E+01,      /* I = 42 */
(PID.TID 0000.0001)                 7.015359282872943E+01,      /* I = 43 */
(PID.TID 0000.0001)                 7.356369199444866E+01,      /* I = 44 */
(PID.TID 0000.0001)                 7.708910193697932E+01,      /* I = 45 */
(PID.TID 0000.0001)                 8.070819219728060E+01,      /* I = 46 */
(PID.TID 0000.0001)                 8.439652466417766E+01,      /* I = 47 */
(PID.TID 0000.0001)                 8.812739148696656E+01,      /* I = 48 */
(PID.TID 0000.0001)                 9.187260851303344E+01,      /* I = 49 */
(PID.TID 0000.0001)                 9.560347533582234E+01,      /* I = 50 */
(PID.TID 0000.0001)                 9.929180780271940E+01,      /* I = 51 */
(PID.TID 0000.0001)                 1.029108980630207E+02,      /* I = 52 */
(PID.TID 0000.0001)                 1.064363080055513E+02,      /* I = 53 */
(PID.TID 0000.0001)                 1.098464071712706E+02,      /* I = 54 */
(PID.TID 0000.0001)                 1.131226125042634E+02,      /* I = 55 */
(PID.TID 0000.0001)                 1.162493222302829E+02,      /* I = 56 */
(PID.TID 0000.0001)                 1.192135596563268E+02,      /* I = 57 */
(PID.TID 0000.0001)                 1.220043456904179E+02,      /* I = 58 */
(PID.TID 0000.0001)                 1.246117936709415E+02,      /* I = 59 */
(PID.TID 0000.0001)                 1.270258515868220E+02,      /* I = 60 */
(PID.TID 0000.0001)                 1.292344628848730E+02,      /* I = 61 */
(PID.TID 0000.0001)                 1.312205555338896E+02,      /* I = 62 */
(PID.TID 0000.0001)                 1.329564127227588E+02,      /* I = 63 */
(PID.TID 0000.0001)                 1.343952199476053E+02,      /* I = 64 */
(PID.TID 0000.0001)                 4.500000000000000E+01,      /* I = 65 */
(PID.TID 0000.0001)                 4.620805468796297E+01,      /* I = 66 */
(PID.TID 0000.0001)                 4.781369642513039E+01,      /* I = 67 */
(PID.TID 0000.0001)                 4.971767671143929E+01,      /* I = 68 */
(PID.TID 0000.0001)                 5.187738319787235E+01,      /* I = 69 */
(PID.TID 0000.0001)                 5.427004371478710E+01,      /* I = 70 */
(PID.TID 0000.0001)                 5.688128325334060E+01,      /* I = 71 */
(PID.TID 0000.0001)                 5.970018167786760E+01,      /* I = 72 */
(PID.TID 0000.0001)                 6.271654991792347E+01,      /* I = 73 */
(PID.TID 0000.0001)                 6.591914604853015E+01,      /* I = 74 */
(PID.TID 0000.0001)                 6.929439270484149E+01,      /* I = 75 */
(PID.TID 0000.0001)                 7.282545807616151E+01,      /* I = 76 */
(PID.TID 0000.0001)                 7.649168830618933E+01,      /* I = 77 */
(PID.TID 0000.0001)                 8.026842803787176E+01,      /* I = 78 */
(PID.TID 0000.0001)                 8.412726743124185E+01,      /* I = 79 */
(PID.TID 0000.0001)                 8.803672008547504E+01,      /* I = 80 */
(PID.TID 0000.0001)                 9.196327991452496E+01,      /* I = 81 */
(PID.TID 0000.0001)                 9.587273256875815E+01,      /* I = 82 */
(PID.TID 0000.0001)                 9.973157196212824E+01,      /* I = 83 */
(PID.TID 0000.0001)                 1.035083116938107E+02,      /* I = 84 */
(PID.TID 0000.0001)                 1.071745419238385E+02,      /* I = 85 */
(PID.TID 0000.0001)                 1.107056072951585E+02,      /* I = 86 */
(PID.TID 0000.0001)                 1.140808539514699E+02,      /* I = 87 */
(PID.TID 0000.0001)                 1.172834500820765E+02,      /* I = 88 */
(PID.TID 0000.0001)                 1.202998183221324E+02,      /* I = 89 */
(PID.TID 0000.0001)                 1.231187167466594E+02,      /* I = 90 */
(PID.TID 0000.0001)                 1.257299562852129E+02,      /* I = 91 */
(PID.TID 0000.0001)                 1.281226168021277E+02,      /* I = 92 */
(PID.TID 0000.0001)                 1.302823232885607E+02,      /* I = 93 */
(PID.TID 0000.0001)                 1.321863035748696E+02,      /* I = 94 */
(PID.TID 0000.0001)                 1.337919453120370E+02,      /* I = 95 */
(PID.TID 0000.0001)                 1.350000000000000E+02,      /* I = 96 */
(PID.TID 0000.0001)                 1.356047800523947E+02,      /* I = 97 */
(PID.TID 0000.0001)                 1.358367907661329E+02,      /* I = 98 */
(PID.TID 0000.0001)                 1.359720382181193E+02,      /* I = 99 */
(PID.TID 0000.0001)                 1.360654656901789E+02,      /* I =100 */
(PID.TID 0000.0001)                 1.361344533147043E+02,      /* I =101 */
(PID.TID 0000.0001)                 1.361871219420981E+02,      /* I =102 */
(PID.TID 0000.0001)                 1.362280794509603E+02,      /* I =103 */
(PID.TID 0000.0001)                 1.362602511071934E+02,      /* I =104 */
(PID.TID 0000.0001)                 1.362856280326734E+02,      /* I =105 */
(PID.TID 0000.0001)                 1.363056266270901E+02,      /* I =106 */
(PID.TID 0000.0001)                 1.363212817739446E+02,      /* I =107 */
(PID.TID 0000.0001)                 1.363333595910255E+02,      /* I =108 */
(PID.TID 0000.0001)                 1.363424272425760E+02,      /* I =109 */
(PID.TID 0000.0001)                 1.363488978790713E+02,      /* I =110 */
(PID.TID 0000.0001)                 1.363530600590580E+02,      /* I =111 */
(PID.TID 0000.0001)     2 @  1.363550967500717E+02,             /* I =112:113 */
(PID.TID 0000.0001)                 1.363530600590580E+02,      /* I =114 */
(PID.TID 0000.0001)                 1.363488978790713E+02,      /* I =115 */
(PID.TID 0000.0001)                 1.363424272425760E+02,      /* I =116 */
(PID.TID 0000.0001)                 1.363333595910255E+02,      /* I =117 */
(PID.TID 0000.0001)                 1.363212817739446E+02,      /* I =118 */
(PID.TID 0000.0001)                 1.363056266270901E+02,      /* I =119 */
(PID.TID 0000.0001)                 1.362856280326734E+02,      /* I =120 */
(PID.TID 0000.0001)                 1.362602511071934E+02,      /* I =121 */
(PID.TID 0000.0001)                 1.362280794509603E+02,      /* I =122 */
(PID.TID 0000.0001)                 1.361871219420981E+02,      /* I =123 */
(PID.TID 0000.0001)                 1.361344533147043E+02,      /* I =124 */
(PID.TID 0000.0001)                 1.360654656901789E+02,      /* I =125 */
(PID.TID 0000.0001)                 1.359720382181193E+02,      /* I =126 */
(PID.TID 0000.0001)                 1.358367907661329E+02,      /* I =127 */
(PID.TID 0000.0001)                 1.356047800523947E+02,      /* I =128 */
(PID.TID 0000.0001)                -1.343952199476053E+02,      /* I =129 */
(PID.TID 0000.0001)                -1.341632092338671E+02,      /* I =130 */
(PID.TID 0000.0001)                -1.340279617818807E+02,      /* I =131 */
(PID.TID 0000.0001)                -1.339345343098211E+02,      /* I =132 */
(PID.TID 0000.0001)                -1.338655466852958E+02,      /* I =133 */
(PID.TID 0000.0001)                -1.338128780579019E+02,      /* I =134 */
(PID.TID 0000.0001)                -1.337719205490397E+02,      /* I =135 */
(PID.TID 0000.0001)                -1.337397488928066E+02,      /* I =136 */
(PID.TID 0000.0001)                -1.337143719673266E+02,      /* I =137 */
(PID.TID 0000.0001)                -1.336943733729099E+02,      /* I =138 */
(PID.TID 0000.0001)                -1.336787182260554E+02,      /* I =139 */
(PID.TID 0000.0001)                -1.336666404089745E+02,      /* I =140 */
(PID.TID 0000.0001)                -1.336575727574240E+02,      /* I =141 */
(PID.TID 0000.0001)                -1.336511021209287E+02,      /* I =142 */
(PID.TID 0000.0001)                -1.336469399409420E+02,      /* I =143 */
(PID.TID 0000.0001)     2 @ -1.336449032499283E+02,             /* I =144:145 */
(PID.TID 0000.0001)                -1.336469399409420E+02,      /* I =146 */
(PID.TID 0000.0001)                -1.336511021209287E+02,      /* I =147 */
(PID.TID 0000.0001)                -1.336575727574240E+02,      /* I =148 */
(PID.TID 0000.0001)                -1.336666404089745E+02,      /* I =149 */
(PID.TID 0000.0001)                -1.336787182260554E+02,      /* I =150 */
(PID.TID 0000.0001)                -1.336943733729099E+02,      /* I =151 */
(PID.TID 0000.0001)                -1.337143719673266E+02,      /* I =152 */
(PID.TID 0000.0001)                -1.337397488928066E+02,      /* I =153 */
(PID.TID 0000.0001)                -1.337719205490397E+02,      /* I =154 */
(PID.TID 0000.0001)                -1.338128780579019E+02,      /* I =155 */
(PID.TID 0000.0001)                -1.338655466852958E+02,      /* I =156 */
(PID.TID 0000.0001)                -1.339345343098211E+02,      /* I =157 */
(PID.TID 0000.0001)                -1.340279617818807E+02,      /* I =158 */
(PID.TID 0000.0001)                -1.341632092338671E+02,      /* I =159 */
(PID.TID 0000.0001)                -1.343952199476053E+02,      /* I =160 */
(PID.TID 0000.0001)                -1.350000000000000E+02,      /* I =161 */
(PID.TID 0000.0001)                -1.362080546879630E+02,      /* I =162 */
(PID.TID 0000.0001)                -1.378136964251304E+02,      /* I =163 */
(PID.TID 0000.0001)                -1.397176767114393E+02,      /* I =164 */
(PID.TID 0000.0001)                -1.418773831978724E+02,      /* I =165 */
(PID.TID 0000.0001)                -1.442700437147871E+02,      /* I =166 */
(PID.TID 0000.0001)                -1.468812832533406E+02,      /* I =167 */
(PID.TID 0000.0001)                -1.497001816778676E+02,      /* I =168 */
(PID.TID 0000.0001)                -1.527165499179235E+02,      /* I =169 */
(PID.TID 0000.0001)                -1.559191460485302E+02,      /* I =170 */
(PID.TID 0000.0001)                -1.592943927048415E+02,      /* I =171 */
(PID.TID 0000.0001)                -1.628254580761615E+02,      /* I =172 */
(PID.TID 0000.0001)                -1.664916883061893E+02,      /* I =173 */
(PID.TID 0000.0001)                -1.702684280378718E+02,      /* I =174 */
(PID.TID 0000.0001)                -1.741272674312418E+02,      /* I =175 */
(PID.TID 0000.0001)                -1.780367200854751E+02,      /* I =176 */
(PID.TID 0000.0001)                 1.780367200854751E+02,      /* I =177 */
(PID.TID 0000.0001)                 1.741272674312418E+02,      /* I =178 */
(PID.TID 0000.0001)                 1.702684280378718E+02,      /* I =179 */
(PID.TID 0000.0001)                 1.664916883061893E+02,      /* I =180 */
(PID.TID 0000.0001)                 1.628254580761615E+02,      /* I =181 */
(PID.TID 0000.0001)                 1.592943927048415E+02,      /* I =182 */
(PID.TID 0000.0001)                 1.559191460485302E+02,      /* I =183 */
(PID.TID 0000.0001)                 1.527165499179235E+02,      /* I =184 */
(PID.TID 0000.0001)                 1.497001816778676E+02,      /* I =185 */
(PID.TID 0000.0001)                 1.468812832533406E+02,      /* I =186 */
(PID.TID 0000.0001)                 1.442700437147871E+02,      /* I =187 */
(PID.TID 0000.0001)                 1.418773831978724E+02,      /* I =188 */
(PID.TID 0000.0001)                 1.397176767114393E+02,      /* I =189 */
(PID.TID 0000.0001)                 1.378136964251304E+02,      /* I =190 */
(PID.TID 0000.0001)                 1.362080546879630E+02,      /* I =191 */
(PID.TID 0000.0001)                 1.350000000000000E+02       /* I =192 */
(PID.TID 0000.0001)     ;
(PID.TID 0000.0001) ycoord =   /* P-point Y coord ( m - cartesian, degrees - spherical ) */
(PID.TID 0000.0001)                -3.497677942598243E+01,      /* J =  1 */
(PID.TID 0000.0001)                -3.374005967394886E+01,      /* J =  2 */
(PID.TID 0000.0001)                -3.220655175667454E+01,      /* J =  3 */
(PID.TID 0000.0001)                -3.045756348838641E+01,      /* J =  4 */
(PID.TID 0000.0001)                -2.853728129852918E+01,      /* J =  5 */
(PID.TID 0000.0001)                -2.647426640173173E+01,      /* J =  6 */
(PID.TID 0000.0001)                -2.428936657094636E+01,      /* J =  7 */
(PID.TID 0000.0001)                -2.199915808312262E+01,      /* J =  8 */
(PID.TID 0000.0001)                -1.961768597440146E+01,      /* J =  9 */
(PID.TID 0000.0001)                -1.715743888281371E+01,      /* J = 10 */
(PID.TID 0000.0001)                -1.462993396899330E+01,      /* J = 11 */
(PID.TID 0000.0001)                -1.204608340464756E+01,      /* J = 12 */
(PID.TID 0000.0001)                -9.416429130284818E+00,      /* J = 13 */
(PID.TID 0000.0001)                -6.751293662992216E+00,      /* J = 14 */
(PID.TID 0000.0001)                -4.060875511835959E+00,      /* J = 15 */
(PID.TID 0000.0001)                -1.355307764409121E+00,      /* J = 16 */
(PID.TID 0000.0001)                 1.355307764409121E+00,      /* J = 17 */
(PID.TID 0000.0001)                 4.060875511835959E+00,      /* J = 18 */
(PID.TID 0000.0001)                 6.751293662992216E+00,      /* J = 19 */
(PID.TID 0000.0001)                 9.416429130284818E+00,      /* J = 20 */
(PID.TID 0000.0001)                 1.204608340464756E+01,      /* J = 21 */
(PID.TID 0000.0001)                 1.462993396899330E+01,      /* J = 22 */
(PID.TID 0000.0001)                 1.715743888281371E+01,      /* J = 23 */
(PID.TID 0000.0001)                 1.961768597440146E+01,      /* J = 24 */
(PID.TID 0000.0001)                 2.199915808312262E+01,      /* J = 25 */
(PID.TID 0000.0001)                 2.428936657094636E+01,      /* J = 26 */
(PID.TID 0000.0001)                 2.647426640173173E+01,      /* J = 27 */
(PID.TID 0000.0001)                 2.853728129852918E+01,      /* J = 28 */
(PID.TID 0000.0001)                 3.045756348838641E+01,      /* J = 29 */
(PID.TID 0000.0001)                 3.220655175667454E+01,      /* J = 30 */
(PID.TID 0000.0001)                 3.374005967394886E+01,      /* J = 31 */
(PID.TID 0000.0001)                 3.497677942598243E+01       /* J = 32 */
(PID.TID 0000.0001)     ;
(PID.TID 0000.0001) rcoord =   /* P-point R coordinate (  units of r ) */
(PID.TID 0000.0001)                 9.855300000000000E+04,      /* K =  1 */
(PID.TID 0000.0001)                 9.349900000000000E+04,      /* K =  2 */
(PID.TID 0000.0001)                 8.844500000000000E+04,      /* K =  3 */
(PID.TID 0000.0001)                 8.339100000000000E+04,      /* K =  4 */
(PID.TID 0000.0001)                 7.833700000000000E+04,      /* K =  5 */
(PID.TID 0000.0001)                 7.328300000000000E+04,      /* K =  6 */
(PID.TID 0000.0001)                 6.822900000000000E+04,      /* K =  7 */
(PID.TID 0000.0001)                 6.317500000000000E+04,      /* K =  8 */
(PID.TID 0000.0001)                 5.812100000000000E+04,      /* K =  9 */
(PID.TID 0000.0001)                 5.306700000000000E+04,      /* K = 10 */
(PID.TID 0000.0001)                 4.801300000000000E+04,      /* K = 11 */
(PID.TID 0000.0001)                 4.295900000000000E+04,      /* K = 12 */
(PID.TID 0000.0001)                 3.790500000000000E+04,      /* K = 13 */
(PID.TID 0000.0001)                 3.285100000000000E+04,      /* K = 14 */
(PID.TID 0000.0001)                 2.779700000000000E+04,      /* K = 15 */
(PID.TID 0000.0001)                 2.274300000000000E+04,      /* K = 16 */
(PID.TID 0000.0001)                 1.768900000000000E+04,      /* K = 17 */
(PID.TID 0000.0001)                 1.263500000000000E+04,      /* K = 18 */
(PID.TID 0000.0001)                 7.581000000000000E+03,      /* K = 19 */
(PID.TID 0000.0001)                 2.527000000000000E+03       /* K = 20 */
(PID.TID 0000.0001)     ;
(PID.TID 0000.0001) rF =   /* W-Interf. R coordinate (  units of r ) */
(PID.TID 0000.0001)                 1.010800000000000E+05,      /* K =  1 */
(PID.TID 0000.0001)                 9.602600000000000E+04,      /* K =  2 */
(PID.TID 0000.0001)                 9.097200000000000E+04,      /* K =  3 */
(PID.TID 0000.0001)                 8.591800000000000E+04,      /* K =  4 */
(PID.TID 0000.0001)                 8.086400000000000E+04,      /* K =  5 */
(PID.TID 0000.0001)                 7.581000000000000E+04,      /* K =  6 */
(PID.TID 0000.0001)                 7.075600000000000E+04,      /* K =  7 */
(PID.TID 0000.0001)                 6.570200000000000E+04,      /* K =  8 */
(PID.TID 0000.0001)                 6.064800000000000E+04,      /* K =  9 */
(PID.TID 0000.0001)                 5.559400000000000E+04,      /* K = 10 */
(PID.TID 0000.0001)                 5.054000000000000E+04,      /* K = 11 */
(PID.TID 0000.0001)                 4.548600000000000E+04,      /* K = 12 */
(PID.TID 0000.0001)                 4.043200000000000E+04,      /* K = 13 */
(PID.TID 0000.0001)                 3.537800000000000E+04,      /* K = 14 */
(PID.TID 0000.0001)                 3.032400000000000E+04,      /* K = 15 */
(PID.TID 0000.0001)                 2.527000000000000E+04,      /* K = 16 */
(PID.TID 0000.0001)                 2.021600000000000E+04,      /* K = 17 */
(PID.TID 0000.0001)                 1.516200000000000E+04,      /* K = 18 */
(PID.TID 0000.0001)                 1.010800000000000E+04,      /* K = 19 */
(PID.TID 0000.0001)                 5.054000000000000E+03,      /* K = 20 */
(PID.TID 0000.0001)                 0.000000000000000E+00       /* K = 21 */
(PID.TID 0000.0001)     ;
(PID.TID 0000.0001) deepFacC = /* deep-model grid factor @ cell-Center (-) */
(PID.TID 0000.0001)    20 @  1.000000000000000E+00              /* K =  1: 20 */
(PID.TID 0000.0001)     ;
(PID.TID 0000.0001) deepFacF = /* deep-model grid factor @ W-Interface (-) */
(PID.TID 0000.0001)    21 @  1.000000000000000E+00              /* K =  1: 21 */
(PID.TID 0000.0001)     ;
(PID.TID 0000.0001) rVel2wUnit = /* convert units: rVel -> wSpeed (=1 if z-coord)*/
(PID.TID 0000.0001)                 8.299088287772964E-02,      /* K =  1 */
(PID.TID 0000.0001)                 8.638890293216914E-02,      /* K =  2 */
(PID.TID 0000.0001)                 9.041617201713111E-02,      /* K =  3 */
(PID.TID 0000.0001)                 9.483581781060730E-02,      /* K =  4 */
(PID.TID 0000.0001)                 9.988353290717637E-02,      /* K =  5 */
(PID.TID 0000.0001)                 1.056649626927390E-01,      /* K =  6 */
(PID.TID 0000.0001)                 1.121257692218901E-01,      /* K =  7 */
(PID.TID 0000.0001)                 1.194051469114864E-01,      /* K =  8 */
(PID.TID 0000.0001)                 1.276847289147875E-01,      /* K =  9 */
(PID.TID 0000.0001)                 1.372065176022861E-01,      /* K = 10 */
(PID.TID 0000.0001)                 1.483009141465203E-01,      /* K = 11 */
(PID.TID 0000.0001)                 1.614322681434870E-01,      /* K = 12 */
(PID.TID 0000.0001)                 1.774159962051914E-01,      /* K = 13 */
(PID.TID 0000.0001)                 1.973209376690589E-01,      /* K = 14 */
(PID.TID 0000.0001)                 2.230316384843163E-01,      /* K = 15 */
(PID.TID 0000.0001)                 2.575680599426761E-01,      /* K = 16 */
(PID.TID 0000.0001)                 3.091736104663851E-01,      /* K = 17 */
(PID.TID 0000.0001)                 3.932038624176537E-01,      /* K = 18 */
(PID.TID 0000.0001)                 5.651163998376351E-01,      /* K = 19 */
(PID.TID 0000.0001)                 1.030736779539694E+00,      /* K = 20 */
(PID.TID 0000.0001)                 1.000000000000000E+00       /* K = 21 */
(PID.TID 0000.0001)     ;
(PID.TID 0000.0001) wUnit2rVel = /* convert units: wSpeed -> rVel (=1 if z-coord)*/
(PID.TID 0000.0001)                 1.204951634835960E+01,      /* K =  1 */
(PID.TID 0000.0001)                 1.157556081925453E+01,      /* K =  2 */
(PID.TID 0000.0001)                 1.105996834073589E+01,      /* K =  3 */
(PID.TID 0000.0001)                 1.054453921615416E+01,      /* K =  4 */
(PID.TID 0000.0001)                 1.001166028968277E+01,      /* K =  5 */
(PID.TID 0000.0001)                 9.463875011321207E+00,      /* K =  6 */
(PID.TID 0000.0001)                 8.918556429441841E+00,      /* K =  7 */
(PID.TID 0000.0001)                 8.374848370156839E+00,      /* K =  8 */
(PID.TID 0000.0001)                 7.831790132611446E+00,      /* K =  9 */
(PID.TID 0000.0001)                 7.288283512148101E+00,      /* K = 10 */
(PID.TID 0000.0001)                 6.743046769165609E+00,      /* K = 11 */
(PID.TID 0000.0001)                 6.194548410303959E+00,      /* K = 12 */
(PID.TID 0000.0001)                 5.636470337451675E+00,      /* K = 13 */
(PID.TID 0000.0001)                 5.067885911211165E+00,      /* K = 14 */
(PID.TID 0000.0001)                 4.483668804999254E+00,      /* K = 15 */
(PID.TID 0000.0001)                 3.882468968483740E+00,      /* K = 16 */
(PID.TID 0000.0001)                 3.234428703314977E+00,      /* K = 17 */
(PID.TID 0000.0001)                 2.543210012870675E+00,      /* K = 18 */
(PID.TID 0000.0001)                 1.769546946942811E+00,      /* K = 19 */
(PID.TID 0000.0001)                 9.701797974518570E-01,      /* K = 20 */
(PID.TID 0000.0001)                 1.000000000000000E+00       /* K = 21 */
(PID.TID 0000.0001)     ;
(PID.TID 0000.0001) dBdrRef = /* Vertical gradient of reference boyancy [(m/s/r)^2)] */
(PID.TID 0000.0001)                 0.000000000000000E+00,      /* K =  1 */
(PID.TID 0000.0001)                 1.168695101832678E-06,      /* K =  2 */
(PID.TID 0000.0001)                 1.214731933662585E-06,      /* K =  3 */
(PID.TID 0000.0001)                 1.265376800132251E-06,      /* K =  4 */
(PID.TID 0000.0001)                 1.982108400861510E-06,      /* K =  5 */
(PID.TID 0000.0001)                 2.075677388535635E-06,      /* K =  6 */
(PID.TID 0000.0001)                 2.180603685167407E-06,      /* K =  7 */
(PID.TID 0000.0001)                 2.299237756774469E-06,      /* K =  8 */
(PID.TID 0000.0001)                 2.434651197433198E-06,      /* K =  9 */
(PID.TID 0000.0001)                 2.590943086329595E-06,      /* K = 10 */
(PID.TID 0000.0001)                 2.773719906973164E-06,      /* K = 11 */
(PID.TID 0000.0001)                 2.990877444713175E-06,      /* K = 12 */
(PID.TID 0000.0001)                 3.796258619174569E-06,      /* K = 13 */
(PID.TID 0000.0001)                 4.177197220701854E-06,      /* K = 14 */
(PID.TID 0000.0001)                 5.998085821035755E-06,      /* K = 15 */
(PID.TID 0000.0001)                 6.836650610103146E-06,      /* K = 16 */
(PID.TID 0000.0001)                 1.962224720100582E-05,      /* K = 17 */
(PID.TID 0000.0001)                 2.855207349352877E-05,      /* K = 18 */
(PID.TID 0000.0001)                 1.182300266773325E-04,      /* K = 19 */
(PID.TID 0000.0001)                 2.229643522577340E-04       /* K = 20 */
(PID.TID 0000.0001)     ;
(PID.TID 0000.0001) dxF =  /* dxF(:,1,:,1) ( units: m ) */
(PID.TID 0000.0001)                 1.202082051331828E+05,      /* I =  1 */
(PID.TID 0000.0001)                 1.563594089971120E+05,      /* I =  2 */
(PID.TID 0000.0001)                 1.835530058121492E+05,      /* I =  3 */
(PID.TID 0000.0001)                 2.045883481718707E+05,      /* I =  4 */
(PID.TID 0000.0001)                 2.218350349844185E+05,      /* I =  5 */
(PID.TID 0000.0001)                 2.364352994647058E+05,      /* I =  6 */
(PID.TID 0000.0001)                 2.490022710862746E+05,      /* I =  7 */
(PID.TID 0000.0001)                 2.598919724358304E+05,      /* I =  8 */
(PID.TID 0000.0001)                 2.693210245495156E+05,      /* I =  9 */
(PID.TID 0000.0001)                 2.774243179696503E+05,      /* I = 10 */
(PID.TID 0000.0001)                 2.842862532064524E+05,      /* I = 11 */
(PID.TID 0000.0001)                 2.899590699694043E+05,      /* I = 12 */
(PID.TID 0000.0001)                 2.944742915095688E+05,      /* I = 13 */
(PID.TID 0000.0001)                 2.978501920522794E+05,      /* I = 14 */
(PID.TID 0000.0001)                 3.000967749619962E+05,      /* I = 15 */
(PID.TID 0000.0001)     2 @  3.012190981969055E+05,             /* I = 16: 17 */
(PID.TID 0000.0001)                 3.000967749619962E+05,      /* I = 18 */
(PID.TID 0000.0001)                 2.978501920522794E+05,      /* I = 19 */
(PID.TID 0000.0001)                 2.944742915095688E+05,      /* I = 20 */
(PID.TID 0000.0001)                 2.899590699694043E+05,      /* I = 21 */
(PID.TID 0000.0001)                 2.842862532064524E+05,      /* I = 22 */
(PID.TID 0000.0001)                 2.774243179696503E+05,      /* I = 23 */
(PID.TID 0000.0001)                 2.693210245495156E+05,      /* I = 24 */
(PID.TID 0000.0001)                 2.598919724358304E+05,      /* I = 25 */
(PID.TID 0000.0001)                 2.490022710862746E+05,      /* I = 26 */
(PID.TID 0000.0001)                 2.364352994647058E+05,      /* I = 27 */
(PID.TID 0000.0001)                 2.218350349844185E+05,      /* I = 28 */
(PID.TID 0000.0001)                 2.045883481718707E+05,      /* I = 29 */
(PID.TID 0000.0001)                 1.835530058121492E+05,      /* I = 30 */
(PID.TID 0000.0001)                 1.563594089971120E+05,      /* I = 31 */
(PID.TID 0000.0001)     2 @  1.202082051331828E+05,             /* I = 32: 33 */
(PID.TID 0000.0001)                 1.563594089971120E+05,      /* I = 34 */
(PID.TID 0000.0001)                 1.835530058121492E+05,      /* I = 35 */
(PID.TID 0000.0001)                 2.045883481718707E+05,      /* I = 36 */
(PID.TID 0000.0001)                 2.218350349844185E+05,      /* I = 37 */
(PID.TID 0000.0001)                 2.364352994647058E+05,      /* I = 38 */
(PID.TID 0000.0001)                 2.490022710862746E+05,      /* I = 39 */
(PID.TID 0000.0001)                 2.598919724358304E+05,      /* I = 40 */
(PID.TID 0000.0001)                 2.693210245495156E+05,      /* I = 41 */
(PID.TID 0000.0001)                 2.774243179696503E+05,      /* I = 42 */
(PID.TID 0000.0001)                 2.842862532064524E+05,      /* I = 43 */
(PID.TID 0000.0001)                 2.899590699694043E+05,      /* I = 44 */
(PID.TID 0000.0001)                 2.944742915095688E+05,      /* I = 45 */
(PID.TID 0000.0001)                 2.978501920522794E+05,      /* I = 46 */
(PID.TID 0000.0001)                 3.000967749619962E+05,      /* I = 47 */
(PID.TID 0000.0001)     2 @  3.012190981969055E+05,             /* I = 48: 49 */
(PID.TID 0000.0001)                 3.000967749619962E+05,      /* I = 50 */
(PID.TID 0000.0001)                 2.978501920522794E+05,      /* I = 51 */
(PID.TID 0000.0001)                 2.944742915095688E+05,      /* I = 52 */
(PID.TID 0000.0001)                 2.899590699694043E+05,      /* I = 53 */
(PID.TID 0000.0001)                 2.842862532064524E+05,      /* I = 54 */
(PID.TID 0000.0001)                 2.774243179696503E+05,      /* I = 55 */
(PID.TID 0000.0001)                 2.693210245495156E+05,      /* I = 56 */
(PID.TID 0000.0001)                 2.598919724358304E+05,      /* I = 57 */
(PID.TID 0000.0001)                 2.490022710862746E+05,      /* I = 58 */
(PID.TID 0000.0001)                 2.364352994647058E+05,      /* I = 59 */
(PID.TID 0000.0001)                 2.218350349844185E+05,      /* I = 60 */
(PID.TID 0000.0001)                 2.045883481718707E+05,      /* I = 61 */
(PID.TID 0000.0001)                 1.835530058121492E+05,      /* I = 62 */
(PID.TID 0000.0001)                 1.563594089971120E+05,      /* I = 63 */
(PID.TID 0000.0001)     2 @  1.202082051331828E+05,             /* I = 64: 65 */
(PID.TID 0000.0001)                 1.563594089971120E+05,      /* I = 66 */
(PID.TID 0000.0001)                 1.835530058121492E+05,      /* I = 67 */
(PID.TID 0000.0001)                 2.045883481718707E+05,      /* I = 68 */
(PID.TID 0000.0001)                 2.218350349844185E+05,      /* I = 69 */
(PID.TID 0000.0001)                 2.364352994647058E+05,      /* I = 70 */
(PID.TID 0000.0001)                 2.490022710862746E+05,      /* I = 71 */
(PID.TID 0000.0001)                 2.598919724358304E+05,      /* I = 72 */
(PID.TID 0000.0001)                 2.693210245495156E+05,      /* I = 73 */
(PID.TID 0000.0001)                 2.774243179696503E+05,      /* I = 74 */
(PID.TID 0000.0001)                 2.842862532064524E+05,      /* I = 75 */
(PID.TID 0000.0001)                 2.899590699694043E+05,      /* I = 76 */
(PID.TID 0000.0001)                 2.944742915095688E+05,      /* I = 77 */
(PID.TID 0000.0001)                 2.978501920522794E+05,      /* I = 78 */
(PID.TID 0000.0001)                 3.000967749619962E+05,      /* I = 79 */
(PID.TID 0000.0001)     2 @  3.012190981969055E+05,             /* I = 80: 81 */
(PID.TID 0000.0001)                 3.000967749619962E+05,      /* I = 82 */
(PID.TID 0000.0001)                 2.978501920522794E+05,      /* I = 83 */
(PID.TID 0000.0001)                 2.944742915095688E+05,      /* I = 84 */
(PID.TID 0000.0001)                 2.899590699694043E+05,      /* I = 85 */
(PID.TID 0000.0001)                 2.842862532064524E+05,      /* I = 86 */
(PID.TID 0000.0001)                 2.774243179696503E+05,      /* I = 87 */
(PID.TID 0000.0001)                 2.693210245495156E+05,      /* I = 88 */
(PID.TID 0000.0001)                 2.598919724358304E+05,      /* I = 89 */
(PID.TID 0000.0001)                 2.490022710862746E+05,      /* I = 90 */
(PID.TID 0000.0001)                 2.364352994647058E+05,      /* I = 91 */
(PID.TID 0000.0001)                 2.218350349844185E+05,      /* I = 92 */
(PID.TID 0000.0001)                 2.045883481718707E+05,      /* I = 93 */
(PID.TID 0000.0001)                 1.835530058121492E+05,      /* I = 94 */
(PID.TID 0000.0001)                 1.563594089971120E+05,      /* I = 95 */
(PID.TID 0000.0001)     2 @  1.202082051331828E+05,             /* I = 96: 97 */
(PID.TID 0000.0001)                 1.563594089971120E+05,      /* I = 98 */
(PID.TID 0000.0001)                 1.835530058121492E+05,      /* I = 99 */
(PID.TID 0000.0001)                 2.045883481718707E+05,      /* I =100 */
(PID.TID 0000.0001)                 2.218350349844185E+05,      /* I =101 */
(PID.TID 0000.0001)                 2.364352994647058E+05,      /* I =102 */
(PID.TID 0000.0001)                 2.490022710862746E+05,      /* I =103 */
(PID.TID 0000.0001)                 2.598919724358304E+05,      /* I =104 */
(PID.TID 0000.0001)                 2.693210245495156E+05,      /* I =105 */
(PID.TID 0000.0001)                 2.774243179696503E+05,      /* I =106 */
(PID.TID 0000.0001)                 2.842862532064524E+05,      /* I =107 */
(PID.TID 0000.0001)                 2.899590699694043E+05,      /* I =108 */
(PID.TID 0000.0001)                 2.944742915095688E+05,      /* I =109 */
(PID.TID 0000.0001)                 2.978501920522794E+05,      /* I =110 */
(PID.TID 0000.0001)                 3.000967749619962E+05,      /* I =111 */
(PID.TID 0000.0001)     2 @  3.012190981969055E+05,             /* I =112:113 */
(PID.TID 0000.0001)                 3.000967749619962E+05,      /* I =114 */
(PID.TID 0000.0001)                 2.978501920522794E+05,      /* I =115 */
(PID.TID 0000.0001)                 2.944742915095688E+05,      /* I =116 */
(PID.TID 0000.0001)                 2.899590699694043E+05,      /* I =117 */
(PID.TID 0000.0001)                 2.842862532064524E+05,      /* I =118 */
(PID.TID 0000.0001)                 2.774243179696503E+05,      /* I =119 */
(PID.TID 0000.0001)                 2.693210245495156E+05,      /* I =120 */
(PID.TID 0000.0001)                 2.598919724358304E+05,      /* I =121 */
(PID.TID 0000.0001)                 2.490022710862746E+05,      /* I =122 */
(PID.TID 0000.0001)                 2.364352994647058E+05,      /* I =123 */
(PID.TID 0000.0001)                 2.218350349844185E+05,      /* I =124 */
(PID.TID 0000.0001)                 2.045883481718707E+05,      /* I =125 */
(PID.TID 0000.0001)                 1.835530058121492E+05,      /* I =126 */
(PID.TID 0000.0001)                 1.563594089971120E+05,      /* I =127 */
(PID.TID 0000.0001)     2 @  1.202082051331828E+05,             /* I =128:129 */
(PID.TID 0000.0001)                 1.563594089971120E+05,      /* I =130 */
(PID.TID 0000.0001)                 1.835530058121492E+05,      /* I =131 */
(PID.TID 0000.0001)                 2.045883481718707E+05,      /* I =132 */
(PID.TID 0000.0001)                 2.218350349844185E+05,      /* I =133 */
(PID.TID 0000.0001)                 2.364352994647058E+05,      /* I =134 */
(PID.TID 0000.0001)                 2.490022710862746E+05,      /* I =135 */
(PID.TID 0000.0001)                 2.598919724358304E+05,      /* I =136 */
(PID.TID 0000.0001)                 2.693210245495156E+05,      /* I =137 */
(PID.TID 0000.0001)                 2.774243179696503E+05,      /* I =138 */
(PID.TID 0000.0001)                 2.842862532064524E+05,      /* I =139 */
(PID.TID 0000.0001)                 2.899590699694043E+05,      /* I =140 */
(PID.TID 0000.0001)                 2.944742915095688E+05,      /* I =141 */
(PID.TID 0000.0001)                 2.978501920522794E+05,      /* I =142 */
(PID.TID 0000.0001)                 3.000967749619962E+05,      /* I =143 */
(PID.TID 0000.0001)     2 @  3.012190981969055E+05,             /* I =144:145 */
(PID.TID 0000.0001)                 3.000967749619962E+05,      /* I =146 */
(PID.TID 0000.0001)                 2.978501920522794E+05,      /* I =147 */
(PID.TID 0000.0001)                 2.944742915095688E+05,      /* I =148 */
(PID.TID 0000.0001)                 2.899590699694043E+05,      /* I =149 */
(PID.TID 0000.0001)                 2.842862532064524E+05,      /* I =150 */
(PID.TID 0000.0001)                 2.774243179696503E+05,      /* I =151 */
(PID.TID 0000.0001)                 2.693210245495156E+05,      /* I =152 */
(PID.TID 0000.0001)                 2.598919724358304E+05,      /* I =153 */
(PID.TID 0000.0001)                 2.490022710862746E+05,      /* I =154 */
(PID.TID 0000.0001)                 2.364352994647058E+05,      /* I =155 */
(PID.TID 0000.0001)                 2.218350349844185E+05,      /* I =156 */
(PID.TID 0000.0001)                 2.045883481718707E+05,      /* I =157 */
(PID.TID 0000.0001)                 1.835530058121492E+05,      /* I =158 */
(PID.TID 0000.0001)                 1.563594089971120E+05,      /* I =159 */
(PID.TID 0000.0001)     2 @  1.202082051331828E+05,             /* I =160:161 */
(PID.TID 0000.0001)                 1.563594089971120E+05,      /* I =162 */
(PID.TID 0000.0001)                 1.835530058121492E+05,      /* I =163 */
(PID.TID 0000.0001)                 2.045883481718707E+05,      /* I =164 */
(PID.TID 0000.0001)                 2.218350349844185E+05,      /* I =165 */
(PID.TID 0000.0001)                 2.364352994647058E+05,      /* I =166 */
(PID.TID 0000.0001)                 2.490022710862746E+05,      /* I =167 */
(PID.TID 0000.0001)                 2.598919724358304E+05,      /* I =168 */
(PID.TID 0000.0001)                 2.693210245495156E+05,      /* I =169 */
(PID.TID 0000.0001)                 2.774243179696503E+05,      /* I =170 */
(PID.TID 0000.0001)                 2.842862532064524E+05,      /* I =171 */
(PID.TID 0000.0001)                 2.899590699694043E+05,      /* I =172 */
(PID.TID 0000.0001)                 2.944742915095688E+05,      /* I =173 */
(PID.TID 0000.0001)                 2.978501920522794E+05,      /* I =174 */
(PID.TID 0000.0001)                 3.000967749619962E+05,      /* I =175 */
(PID.TID 0000.0001)     2 @  3.012190981969055E+05,             /* I =176:177 */
(PID.TID 0000.0001)                 3.000967749619962E+05,      /* I =178 */
(PID.TID 0000.0001)                 2.978501920522794E+05,      /* I =179 */
(PID.TID 0000.0001)                 2.944742915095688E+05,      /* I =180 */
(PID.TID 0000.0001)                 2.899590699694043E+05,      /* I =181 */
(PID.TID 0000.0001)                 2.842862532064524E+05,      /* I =182 */
(PID.TID 0000.0001)                 2.774243179696503E+05,      /* I =183 */
(PID.TID 0000.0001)                 2.693210245495156E+05,      /* I =184 */
(PID.TID 0000.0001)                 2.598919724358304E+05,      /* I =185 */
(PID.TID 0000.0001)                 2.490022710862746E+05,      /* I =186 */
(PID.TID 0000.0001)                 2.364352994647058E+05,      /* I =187 */
(PID.TID 0000.0001)                 2.218350349844185E+05,      /* I =188 */
(PID.TID 0000.0001)                 2.045883481718707E+05,      /* I =189 */
(PID.TID 0000.0001)                 1.835530058121492E+05,      /* I =190 */
(PID.TID 0000.0001)                 1.563594089971120E+05,      /* I =191 */
(PID.TID 0000.0001)                 1.202082051331828E+05       /* I =192 */
(PID.TID 0000.0001)     ;
(PID.TID 0000.0001) dxF =  /* dxF(1,:,1,:) ( units: m ) */
(PID.TID 0000.0001)                 1.202082051331828E+05,      /* J =  1 */
(PID.TID 0000.0001)                 1.572908084538706E+05,      /* J =  2 */
(PID.TID 0000.0001)                 1.840412227747703E+05,      /* J =  3 */
(PID.TID 0000.0001)                 2.048868197919577E+05,      /* J =  4 */
(PID.TID 0000.0001)                 2.220405216043041E+05,      /* J =  5 */
(PID.TID 0000.0001)                 2.365892017348392E+05,      /* J =  6 */
(PID.TID 0000.0001)                 2.491250781852558E+05,      /* J =  7 */
(PID.TID 0000.0001)                 2.599949918261881E+05,      /* J =  8 */
(PID.TID 0000.0001)                 2.694110134598581E+05,      /* J =  9 */
(PID.TID 0000.0001)                 2.775055554645015E+05,      /* J = 10 */
(PID.TID 0000.0001)                 2.843615645344775E+05,      /* J = 11 */
(PID.TID 0000.0001)                 2.900303768613599E+05,      /* J = 12 */
(PID.TID 0000.0001)                 2.945429307892709E+05,      /* J = 13 */
(PID.TID 0000.0001)                 2.979171143158405E+05,      /* J = 14 */
(PID.TID 0000.0001)                 3.001626787528886E+05,      /* J = 15 */
(PID.TID 0000.0001)     2 @  3.012844832048790E+05,             /* J = 16: 17 */
(PID.TID 0000.0001)                 3.001626787528886E+05,      /* J = 18 */
(PID.TID 0000.0001)                 2.979171143158405E+05,      /* J = 19 */
(PID.TID 0000.0001)                 2.945429307892709E+05,      /* J = 20 */
(PID.TID 0000.0001)                 2.900303768613599E+05,      /* J = 21 */
(PID.TID 0000.0001)                 2.843615645344775E+05,      /* J = 22 */
(PID.TID 0000.0001)                 2.775055554645015E+05,      /* J = 23 */
(PID.TID 0000.0001)                 2.694110134598581E+05,      /* J = 24 */
(PID.TID 0000.0001)                 2.599949918261881E+05,      /* J = 25 */
(PID.TID 0000.0001)                 2.491250781852558E+05,      /* J = 26 */
(PID.TID 0000.0001)                 2.365892017348392E+05,      /* J = 27 */
(PID.TID 0000.0001)                 2.220405216043041E+05,      /* J = 28 */
(PID.TID 0000.0001)                 2.048868197919577E+05,      /* J = 29 */
(PID.TID 0000.0001)                 1.840412227747703E+05,      /* J = 30 */
(PID.TID 0000.0001)                 1.572908084538706E+05,      /* J = 31 */
(PID.TID 0000.0001)                 1.202082051331828E+05       /* J = 32 */
(PID.TID 0000.0001)     ;
(PID.TID 0000.0001) dyF =  /* dyF(:,1,:,1) ( units: m ) */
(PID.TID 0000.0001)                 1.202082051331828E+05,      /* I =  1 */
(PID.TID 0000.0001)                 1.572908084538706E+05,      /* I =  2 */
(PID.TID 0000.0001)                 1.840412227747703E+05,      /* I =  3 */
(PID.TID 0000.0001)                 2.048868197919577E+05,      /* I =  4 */
(PID.TID 0000.0001)                 2.220405216043041E+05,      /* I =  5 */
(PID.TID 0000.0001)                 2.365892017348392E+05,      /* I =  6 */
(PID.TID 0000.0001)                 2.491250781852558E+05,      /* I =  7 */
(PID.TID 0000.0001)                 2.599949918261881E+05,      /* I =  8 */
(PID.TID 0000.0001)                 2.694110134598581E+05,      /* I =  9 */
(PID.TID 0000.0001)                 2.775055554645015E+05,      /* I = 10 */
(PID.TID 0000.0001)                 2.843615645344775E+05,      /* I = 11 */
(PID.TID 0000.0001)                 2.900303768613599E+05,      /* I = 12 */
(PID.TID 0000.0001)                 2.945429307892709E+05,      /* I = 13 */
(PID.TID 0000.0001)                 2.979171143158405E+05,      /* I = 14 */
(PID.TID 0000.0001)                 3.001626787528886E+05,      /* I = 15 */
(PID.TID 0000.0001)     2 @  3.012844832048790E+05,             /* I = 16: 17 */
(PID.TID 0000.0001)                 3.001626787528886E+05,      /* I = 18 */
(PID.TID 0000.0001)                 2.979171143158405E+05,      /* I = 19 */
(PID.TID 0000.0001)                 2.945429307892709E+05,      /* I = 20 */
(PID.TID 0000.0001)                 2.900303768613599E+05,      /* I = 21 */
(PID.TID 0000.0001)                 2.843615645344775E+05,      /* I = 22 */
(PID.TID 0000.0001)                 2.775055554645015E+05,      /* I = 23 */
(PID.TID 0000.0001)                 2.694110134598581E+05,      /* I = 24 */
(PID.TID 0000.0001)                 2.599949918261881E+05,      /* I = 25 */
(PID.TID 0000.0001)                 2.491250781852558E+05,      /* I = 26 */
(PID.TID 0000.0001)                 2.365892017348392E+05,      /* I = 27 */
(PID.TID 0000.0001)                 2.220405216043041E+05,      /* I = 28 */
(PID.TID 0000.0001)                 2.048868197919577E+05,      /* I = 29 */
(PID.TID 0000.0001)                 1.840412227747703E+05,      /* I = 30 */
(PID.TID 0000.0001)                 1.572908084538706E+05,      /* I = 31 */
(PID.TID 0000.0001)     2 @  1.202082051331828E+05,             /* I = 32: 33 */
(PID.TID 0000.0001)                 1.572908084538706E+05,      /* I = 34 */
(PID.TID 0000.0001)                 1.840412227747703E+05,      /* I = 35 */
(PID.TID 0000.0001)                 2.048868197919577E+05,      /* I = 36 */
(PID.TID 0000.0001)                 2.220405216043041E+05,      /* I = 37 */
(PID.TID 0000.0001)                 2.365892017348392E+05,      /* I = 38 */
(PID.TID 0000.0001)                 2.491250781852558E+05,      /* I = 39 */
(PID.TID 0000.0001)                 2.599949918261881E+05,      /* I = 40 */
(PID.TID 0000.0001)                 2.694110134598581E+05,      /* I = 41 */
(PID.TID 0000.0001)                 2.775055554645015E+05,      /* I = 42 */
(PID.TID 0000.0001)                 2.843615645344775E+05,      /* I = 43 */
(PID.TID 0000.0001)                 2.900303768613599E+05,      /* I = 44 */
(PID.TID 0000.0001)                 2.945429307892709E+05,      /* I = 45 */
(PID.TID 0000.0001)                 2.979171143158405E+05,      /* I = 46 */
(PID.TID 0000.0001)                 3.001626787528886E+05,      /* I = 47 */
(PID.TID 0000.0001)     2 @  3.012844832048790E+05,             /* I = 48: 49 */
(PID.TID 0000.0001)                 3.001626787528886E+05,      /* I = 50 */
(PID.TID 0000.0001)                 2.979171143158405E+05,      /* I = 51 */
(PID.TID 0000.0001)                 2.945429307892709E+05,      /* I = 52 */
(PID.TID 0000.0001)                 2.900303768613599E+05,      /* I = 53 */
(PID.TID 0000.0001)                 2.843615645344775E+05,      /* I = 54 */
(PID.TID 0000.0001)                 2.775055554645015E+05,      /* I = 55 */
(PID.TID 0000.0001)                 2.694110134598581E+05,      /* I = 56 */
(PID.TID 0000.0001)                 2.599949918261881E+05,      /* I = 57 */
(PID.TID 0000.0001)                 2.491250781852558E+05,      /* I = 58 */
(PID.TID 0000.0001)                 2.365892017348392E+05,      /* I = 59 */
(PID.TID 0000.0001)                 2.220405216043041E+05,      /* I = 60 */
(PID.TID 0000.0001)                 2.048868197919577E+05,      /* I = 61 */
(PID.TID 0000.0001)                 1.840412227747703E+05,      /* I = 62 */
(PID.TID 0000.0001)                 1.572908084538706E+05,      /* I = 63 */
(PID.TID 0000.0001)     2 @  1.202082051331828E+05,             /* I = 64: 65 */
(PID.TID 0000.0001)                 1.572908084538706E+05,      /* I = 66 */
(PID.TID 0000.0001)                 1.840412227747703E+05,      /* I = 67 */
(PID.TID 0000.0001)                 2.048868197919577E+05,      /* I = 68 */
(PID.TID 0000.0001)                 2.220405216043041E+05,      /* I = 69 */
(PID.TID 0000.0001)                 2.365892017348392E+05,      /* I = 70 */
(PID.TID 0000.0001)                 2.491250781852558E+05,      /* I = 71 */
(PID.TID 0000.0001)                 2.599949918261881E+05,      /* I = 72 */
(PID.TID 0000.0001)                 2.694110134598581E+05,      /* I = 73 */
(PID.TID 0000.0001)                 2.775055554645015E+05,      /* I = 74 */
(PID.TID 0000.0001)                 2.843615645344775E+05,      /* I = 75 */
(PID.TID 0000.0001)                 2.900303768613599E+05,      /* I = 76 */
(PID.TID 0000.0001)                 2.945429307892709E+05,      /* I = 77 */
(PID.TID 0000.0001)                 2.979171143158405E+05,      /* I = 78 */
(PID.TID 0000.0001)                 3.001626787528886E+05,      /* I = 79 */
(PID.TID 0000.0001)     2 @  3.012844832048790E+05,             /* I = 80: 81 */
(PID.TID 0000.0001)                 3.001626787528886E+05,      /* I = 82 */
(PID.TID 0000.0001)                 2.979171143158405E+05,      /* I = 83 */
(PID.TID 0000.0001)                 2.945429307892709E+05,      /* I = 84 */
(PID.TID 0000.0001)                 2.900303768613599E+05,      /* I = 85 */
(PID.TID 0000.0001)                 2.843615645344775E+05,      /* I = 86 */
(PID.TID 0000.0001)                 2.775055554645015E+05,      /* I = 87 */
(PID.TID 0000.0001)                 2.694110134598581E+05,      /* I = 88 */
(PID.TID 0000.0001)                 2.599949918261881E+05,      /* I = 89 */
(PID.TID 0000.0001)                 2.491250781852558E+05,      /* I = 90 */
(PID.TID 0000.0001)                 2.365892017348392E+05,      /* I = 91 */
(PID.TID 0000.0001)                 2.220405216043041E+05,      /* I = 92 */
(PID.TID 0000.0001)                 2.048868197919577E+05,      /* I = 93 */
(PID.TID 0000.0001)                 1.840412227747703E+05,      /* I = 94 */
(PID.TID 0000.0001)                 1.572908084538706E+05,      /* I = 95 */
(PID.TID 0000.0001)     2 @  1.202082051331828E+05,             /* I = 96: 97 */
(PID.TID 0000.0001)                 1.572908084538706E+05,      /* I = 98 */
(PID.TID 0000.0001)                 1.840412227747703E+05,      /* I = 99 */
(PID.TID 0000.0001)                 2.048868197919577E+05,      /* I =100 */
(PID.TID 0000.0001)                 2.220405216043041E+05,      /* I =101 */
(PID.TID 0000.0001)                 2.365892017348392E+05,      /* I =102 */
(PID.TID 0000.0001)                 2.491250781852558E+05,      /* I =103 */
(PID.TID 0000.0001)                 2.599949918261881E+05,      /* I =104 */
(PID.TID 0000.0001)                 2.694110134598581E+05,      /* I =105 */
(PID.TID 0000.0001)                 2.775055554645015E+05,      /* I =106 */
(PID.TID 0000.0001)                 2.843615645344775E+05,      /* I =107 */
(PID.TID 0000.0001)                 2.900303768613599E+05,      /* I =108 */
(PID.TID 0000.0001)                 2.945429307892709E+05,      /* I =109 */
(PID.TID 0000.0001)                 2.979171143158405E+05,      /* I =110 */
(PID.TID 0000.0001)                 3.001626787528886E+05,      /* I =111 */
(PID.TID 0000.0001)     2 @  3.012844832048790E+05,             /* I =112:113 */
(PID.TID 0000.0001)                 3.001626787528886E+05,      /* I =114 */
(PID.TID 0000.0001)                 2.979171143158405E+05,      /* I =115 */
(PID.TID 0000.0001)                 2.945429307892709E+05,      /* I =116 */
(PID.TID 0000.0001)                 2.900303768613599E+05,      /* I =117 */
(PID.TID 0000.0001)                 2.843615645344775E+05,      /* I =118 */
(PID.TID 0000.0001)                 2.775055554645015E+05,      /* I =119 */
(PID.TID 0000.0001)                 2.694110134598581E+05,      /* I =120 */
(PID.TID 0000.0001)                 2.599949918261881E+05,      /* I =121 */
(PID.TID 0000.0001)                 2.491250781852558E+05,      /* I =122 */
(PID.TID 0000.0001)                 2.365892017348392E+05,      /* I =123 */
(PID.TID 0000.0001)                 2.220405216043041E+05,      /* I =124 */
(PID.TID 0000.0001)                 2.048868197919577E+05,      /* I =125 */
(PID.TID 0000.0001)                 1.840412227747703E+05,      /* I =126 */
(PID.TID 0000.0001)                 1.572908084538706E+05,      /* I =127 */
(PID.TID 0000.0001)     2 @  1.202082051331828E+05,             /* I =128:129 */
(PID.TID 0000.0001)                 1.572908084538706E+05,      /* I =130 */
(PID.TID 0000.0001)                 1.840412227747703E+05,      /* I =131 */
(PID.TID 0000.0001)                 2.048868197919577E+05,      /* I =132 */
(PID.TID 0000.0001)                 2.220405216043041E+05,      /* I =133 */
(PID.TID 0000.0001)                 2.365892017348392E+05,      /* I =134 */
(PID.TID 0000.0001)                 2.491250781852558E+05,      /* I =135 */
(PID.TID 0000.0001)                 2.599949918261881E+05,      /* I =136 */
(PID.TID 0000.0001)                 2.694110134598581E+05,      /* I =137 */
(PID.TID 0000.0001)                 2.775055554645015E+05,      /* I =138 */
(PID.TID 0000.0001)                 2.843615645344775E+05,      /* I =139 */
(PID.TID 0000.0001)                 2.900303768613599E+05,      /* I =140 */
(PID.TID 0000.0001)                 2.945429307892709E+05,      /* I =141 */
(PID.TID 0000.0001)                 2.979171143158405E+05,      /* I =142 */
(PID.TID 0000.0001)                 3.001626787528886E+05,      /* I =143 */
(PID.TID 0000.0001)     2 @  3.012844832048790E+05,             /* I =144:145 */
(PID.TID 0000.0001)                 3.001626787528886E+05,      /* I =146 */
(PID.TID 0000.0001)                 2.979171143158405E+05,      /* I =147 */
(PID.TID 0000.0001)                 2.945429307892709E+05,      /* I =148 */
(PID.TID 0000.0001)                 2.900303768613599E+05,      /* I =149 */
(PID.TID 0000.0001)                 2.843615645344775E+05,      /* I =150 */
(PID.TID 0000.0001)                 2.775055554645015E+05,      /* I =151 */
(PID.TID 0000.0001)                 2.694110134598581E+05,      /* I =152 */
(PID.TID 0000.0001)                 2.599949918261881E+05,      /* I =153 */
(PID.TID 0000.0001)                 2.491250781852558E+05,      /* I =154 */
(PID.TID 0000.0001)                 2.365892017348392E+05,      /* I =155 */
(PID.TID 0000.0001)                 2.220405216043041E+05,      /* I =156 */
(PID.TID 0000.0001)                 2.048868197919577E+05,      /* I =157 */
(PID.TID 0000.0001)                 1.840412227747703E+05,      /* I =158 */
(PID.TID 0000.0001)                 1.572908084538706E+05,      /* I =159 */
(PID.TID 0000.0001)     2 @  1.202082051331828E+05,             /* I =160:161 */
(PID.TID 0000.0001)                 1.572908084538706E+05,      /* I =162 */
(PID.TID 0000.0001)                 1.840412227747703E+05,      /* I =163 */
(PID.TID 0000.0001)                 2.048868197919577E+05,      /* I =164 */
(PID.TID 0000.0001)                 2.220405216043041E+05,      /* I =165 */
(PID.TID 0000.0001)                 2.365892017348392E+05,      /* I =166 */
(PID.TID 0000.0001)                 2.491250781852558E+05,      /* I =167 */
(PID.TID 0000.0001)                 2.599949918261881E+05,      /* I =168 */
(PID.TID 0000.0001)                 2.694110134598581E+05,      /* I =169 */
(PID.TID 0000.0001)                 2.775055554645015E+05,      /* I =170 */
(PID.TID 0000.0001)                 2.843615645344775E+05,      /* I =171 */
(PID.TID 0000.0001)                 2.900303768613599E+05,      /* I =172 */
(PID.TID 0000.0001)                 2.945429307892709E+05,      /* I =173 */
(PID.TID 0000.0001)                 2.979171143158405E+05,      /* I =174 */
(PID.TID 0000.0001)                 3.001626787528886E+05,      /* I =175 */
(PID.TID 0000.0001)     2 @  3.012844832048790E+05,             /* I =176:177 */
(PID.TID 0000.0001)                 3.001626787528886E+05,      /* I =178 */
(PID.TID 0000.0001)                 2.979171143158405E+05,      /* I =179 */
(PID.TID 0000.0001)                 2.945429307892709E+05,      /* I =180 */
(PID.TID 0000.0001)                 2.900303768613599E+05,      /* I =181 */
(PID.TID 0000.0001)                 2.843615645344775E+05,      /* I =182 */
(PID.TID 0000.0001)                 2.775055554645015E+05,      /* I =183 */
(PID.TID 0000.0001)                 2.694110134598581E+05,      /* I =184 */
(PID.TID 0000.0001)                 2.599949918261881E+05,      /* I =185 */
(PID.TID 0000.0001)                 2.491250781852558E+05,      /* I =186 */
(PID.TID 0000.0001)                 2.365892017348392E+05,      /* I =187 */
(PID.TID 0000.0001)                 2.220405216043041E+05,      /* I =188 */
(PID.TID 0000.0001)                 2.048868197919577E+05,      /* I =189 */
(PID.TID 0000.0001)                 1.840412227747703E+05,      /* I =190 */
(PID.TID 0000.0001)                 1.572908084538706E+05,      /* I =191 */
(PID.TID 0000.0001)                 1.202082051331828E+05       /* I =192 */
(PID.TID 0000.0001)     ;
(PID.TID 0000.0001) dyF =  /* dyF(1,:,1,:) ( units: m ) */
(PID.TID 0000.0001)                 1.202082051331828E+05,      /* J =  1 */
(PID.TID 0000.0001)                 1.563594089971120E+05,      /* J =  2 */
(PID.TID 0000.0001)                 1.835530058121492E+05,      /* J =  3 */
(PID.TID 0000.0001)                 2.045883481718707E+05,      /* J =  4 */
(PID.TID 0000.0001)                 2.218350349844185E+05,      /* J =  5 */
(PID.TID 0000.0001)                 2.364352994647058E+05,      /* J =  6 */
(PID.TID 0000.0001)                 2.490022710862746E+05,      /* J =  7 */
(PID.TID 0000.0001)                 2.598919724358304E+05,      /* J =  8 */
(PID.TID 0000.0001)                 2.693210245495156E+05,      /* J =  9 */
(PID.TID 0000.0001)                 2.774243179696503E+05,      /* J = 10 */
(PID.TID 0000.0001)                 2.842862532064524E+05,      /* J = 11 */
(PID.TID 0000.0001)                 2.899590699694043E+05,      /* J = 12 */
(PID.TID 0000.0001)                 2.944742915095688E+05,      /* J = 13 */
(PID.TID 0000.0001)                 2.978501920522794E+05,      /* J = 14 */
(PID.TID 0000.0001)                 3.000967749619962E+05,      /* J = 15 */
(PID.TID 0000.0001)     2 @  3.012190981969055E+05,             /* J = 16: 17 */
(PID.TID 0000.0001)                 3.000967749619962E+05,      /* J = 18 */
(PID.TID 0000.0001)                 2.978501920522794E+05,      /* J = 19 */
(PID.TID 0000.0001)                 2.944742915095688E+05,      /* J = 20 */
(PID.TID 0000.0001)                 2.899590699694043E+05,      /* J = 21 */
(PID.TID 0000.0001)                 2.842862532064524E+05,      /* J = 22 */
(PID.TID 0000.0001)                 2.774243179696503E+05,      /* J = 23 */
(PID.TID 0000.0001)                 2.693210245495156E+05,      /* J = 24 */
(PID.TID 0000.0001)                 2.598919724358304E+05,      /* J = 25 */
(PID.TID 0000.0001)                 2.490022710862746E+05,      /* J = 26 */
(PID.TID 0000.0001)                 2.364352994647058E+05,      /* J = 27 */
(PID.TID 0000.0001)                 2.218350349844185E+05,      /* J = 28 */
(PID.TID 0000.0001)                 2.045883481718707E+05,      /* J = 29 */
(PID.TID 0000.0001)                 1.835530058121492E+05,      /* J = 30 */
(PID.TID 0000.0001)                 1.563594089971120E+05,      /* J = 31 */
(PID.TID 0000.0001)                 1.202082051331828E+05       /* J = 32 */
(PID.TID 0000.0001)     ;
(PID.TID 0000.0001) dxG =  /* dxG(:,1,:,1) ( units: m ) */
(PID.TID 0000.0001)                 1.009837800879055E+05,      /* I =  1 */
(PID.TID 0000.0001)                 1.534505834330338E+05,      /* I =  2 */
(PID.TID 0000.0001)                 1.823321598773926E+05,      /* I =  3 */
(PID.TID 0000.0001)                 2.038999045536999E+05,      /* I =  4 */
(PID.TID 0000.0001)                 2.213884732245467E+05,      /* I =  5 */
(PID.TID 0000.0001)                 2.361211699596122E+05,      /* I =  6 */
(PID.TID 0000.0001)                 2.487693460283865E+05,      /* I =  7 */
(PID.TID 0000.0001)                 2.597126963772147E+05,      /* I =  8 */
(PID.TID 0000.0001)                 2.691790288994575E+05,      /* I =  9 */
(PID.TID 0000.0001)                 2.773091043277394E+05,      /* I = 10 */
(PID.TID 0000.0001)                 2.841906470085516E+05,      /* I = 11 */
(PID.TID 0000.0001)                 2.898778860929753E+05,      /* I = 12 */
(PID.TID 0000.0001)                 2.944035815526416E+05,      /* I = 13 */
(PID.TID 0000.0001)                 2.977867909042096E+05,      /* I = 14 */
(PID.TID 0000.0001)                 3.000380090330854E+05,      /* I = 15 */
(PID.TID 0000.0001)     2 @  3.011625828699101E+05,             /* I = 16: 17 */
(PID.TID 0000.0001)                 3.000380090330854E+05,      /* I = 18 */
(PID.TID 0000.0001)                 2.977867909042096E+05,      /* I = 19 */
(PID.TID 0000.0001)                 2.944035815526416E+05,      /* I = 20 */
(PID.TID 0000.0001)                 2.898778860929753E+05,      /* I = 21 */
(PID.TID 0000.0001)                 2.841906470085516E+05,      /* I = 22 */
(PID.TID 0000.0001)                 2.773091043277394E+05,      /* I = 23 */
(PID.TID 0000.0001)                 2.691790288994575E+05,      /* I = 24 */
(PID.TID 0000.0001)                 2.597126963772147E+05,      /* I = 25 */
(PID.TID 0000.0001)                 2.487693460283865E+05,      /* I = 26 */
(PID.TID 0000.0001)                 2.361211699596122E+05,      /* I = 27 */
(PID.TID 0000.0001)                 2.213884732245467E+05,      /* I = 28 */
(PID.TID 0000.0001)                 2.038999045536999E+05,      /* I = 29 */
(PID.TID 0000.0001)                 1.823321598773926E+05,      /* I = 30 */
(PID.TID 0000.0001)                 1.534505834330338E+05,      /* I = 31 */
(PID.TID 0000.0001)     2 @  1.009837800879055E+05,             /* I = 32: 33 */
(PID.TID 0000.0001)                 1.534505834330338E+05,      /* I = 34 */
(PID.TID 0000.0001)                 1.823321598773926E+05,      /* I = 35 */
(PID.TID 0000.0001)                 2.038999045536999E+05,      /* I = 36 */
(PID.TID 0000.0001)                 2.213884732245467E+05,      /* I = 37 */
(PID.TID 0000.0001)                 2.361211699596122E+05,      /* I = 38 */
(PID.TID 0000.0001)                 2.487693460283865E+05,      /* I = 39 */
(PID.TID 0000.0001)                 2.597126963772147E+05,      /* I = 40 */
(PID.TID 0000.0001)                 2.691790288994575E+05,      /* I = 41 */
(PID.TID 0000.0001)                 2.773091043277394E+05,      /* I = 42 */
(PID.TID 0000.0001)                 2.841906470085516E+05,      /* I = 43 */
(PID.TID 0000.0001)                 2.898778860929753E+05,      /* I = 44 */
(PID.TID 0000.0001)                 2.944035815526416E+05,      /* I = 45 */
(PID.TID 0000.0001)                 2.977867909042096E+05,      /* I = 46 */
(PID.TID 0000.0001)                 3.000380090330854E+05,      /* I = 47 */
(PID.TID 0000.0001)     2 @  3.011625828699101E+05,             /* I = 48: 49 */
(PID.TID 0000.0001)                 3.000380090330854E+05,      /* I = 50 */
(PID.TID 0000.0001)                 2.977867909042096E+05,      /* I = 51 */
(PID.TID 0000.0001)                 2.944035815526416E+05,      /* I = 52 */
(PID.TID 0000.0001)                 2.898778860929753E+05,      /* I = 53 */
(PID.TID 0000.0001)                 2.841906470085516E+05,      /* I = 54 */
(PID.TID 0000.0001)                 2.773091043277394E+05,      /* I = 55 */
(PID.TID 0000.0001)                 2.691790288994575E+05,      /* I = 56 */
(PID.TID 0000.0001)                 2.597126963772147E+05,      /* I = 57 */
(PID.TID 0000.0001)                 2.487693460283865E+05,      /* I = 58 */
(PID.TID 0000.0001)                 2.361211699596122E+05,      /* I = 59 */
(PID.TID 0000.0001)                 2.213884732245467E+05,      /* I = 60 */
(PID.TID 0000.0001)                 2.038999045536999E+05,      /* I = 61 */
(PID.TID 0000.0001)                 1.823321598773926E+05,      /* I = 62 */
(PID.TID 0000.0001)                 1.534505834330338E+05,      /* I = 63 */
(PID.TID 0000.0001)     2 @  1.009837800879055E+05,             /* I = 64: 65 */
(PID.TID 0000.0001)                 1.534505834330338E+05,      /* I = 66 */
(PID.TID 0000.0001)                 1.823321598773926E+05,      /* I = 67 */
(PID.TID 0000.0001)                 2.038999045536999E+05,      /* I = 68 */
(PID.TID 0000.0001)                 2.213884732245467E+05,      /* I = 69 */
(PID.TID 0000.0001)                 2.361211699596122E+05,      /* I = 70 */
(PID.TID 0000.0001)                 2.487693460283865E+05,      /* I = 71 */
(PID.TID 0000.0001)                 2.597126963772147E+05,      /* I = 72 */
(PID.TID 0000.0001)                 2.691790288994575E+05,      /* I = 73 */
(PID.TID 0000.0001)                 2.773091043277394E+05,      /* I = 74 */
(PID.TID 0000.0001)                 2.841906470085516E+05,      /* I = 75 */
(PID.TID 0000.0001)                 2.898778860929753E+05,      /* I = 76 */
(PID.TID 0000.0001)                 2.944035815526416E+05,      /* I = 77 */
(PID.TID 0000.0001)                 2.977867909042096E+05,      /* I = 78 */
(PID.TID 0000.0001)                 3.000380090330854E+05,      /* I = 79 */
(PID.TID 0000.0001)     2 @  3.011625828699101E+05,             /* I = 80: 81 */
(PID.TID 0000.0001)                 3.000380090330854E+05,      /* I = 82 */
(PID.TID 0000.0001)                 2.977867909042096E+05,      /* I = 83 */
(PID.TID 0000.0001)                 2.944035815526416E+05,      /* I = 84 */
(PID.TID 0000.0001)                 2.898778860929753E+05,      /* I = 85 */
(PID.TID 0000.0001)                 2.841906470085516E+05,      /* I = 86 */
(PID.TID 0000.0001)                 2.773091043277394E+05,      /* I = 87 */
(PID.TID 0000.0001)                 2.691790288994575E+05,      /* I = 88 */
(PID.TID 0000.0001)                 2.597126963772147E+05,      /* I = 89 */
(PID.TID 0000.0001)                 2.487693460283865E+05,      /* I = 90 */
(PID.TID 0000.0001)                 2.361211699596122E+05,      /* I = 91 */
(PID.TID 0000.0001)                 2.213884732245467E+05,      /* I = 92 */
(PID.TID 0000.0001)                 2.038999045536999E+05,      /* I = 93 */
(PID.TID 0000.0001)                 1.823321598773926E+05,      /* I = 94 */
(PID.TID 0000.0001)                 1.534505834330338E+05,      /* I = 95 */
(PID.TID 0000.0001)     2 @  1.009837800879055E+05,             /* I = 96: 97 */
(PID.TID 0000.0001)                 1.534505834330338E+05,      /* I = 98 */
(PID.TID 0000.0001)                 1.823321598773926E+05,      /* I = 99 */
(PID.TID 0000.0001)                 2.038999045536999E+05,      /* I =100 */
(PID.TID 0000.0001)                 2.213884732245467E+05,      /* I =101 */
(PID.TID 0000.0001)                 2.361211699596122E+05,      /* I =102 */
(PID.TID 0000.0001)                 2.487693460283865E+05,      /* I =103 */
(PID.TID 0000.0001)                 2.597126963772147E+05,      /* I =104 */
(PID.TID 0000.0001)                 2.691790288994575E+05,      /* I =105 */
(PID.TID 0000.0001)                 2.773091043277394E+05,      /* I =106 */
(PID.TID 0000.0001)                 2.841906470085516E+05,      /* I =107 */
(PID.TID 0000.0001)                 2.898778860929753E+05,      /* I =108 */
(PID.TID 0000.0001)                 2.944035815526416E+05,      /* I =109 */
(PID.TID 0000.0001)                 2.977867909042096E+05,      /* I =110 */
(PID.TID 0000.0001)                 3.000380090330854E+05,      /* I =111 */
(PID.TID 0000.0001)     2 @  3.011625828699101E+05,             /* I =112:113 */
(PID.TID 0000.0001)                 3.000380090330854E+05,      /* I =114 */
(PID.TID 0000.0001)                 2.977867909042096E+05,      /* I =115 */
(PID.TID 0000.0001)                 2.944035815526416E+05,      /* I =116 */
(PID.TID 0000.0001)                 2.898778860929753E+05,      /* I =117 */
(PID.TID 0000.0001)                 2.841906470085516E+05,      /* I =118 */
(PID.TID 0000.0001)                 2.773091043277394E+05,      /* I =119 */
(PID.TID 0000.0001)                 2.691790288994575E+05,      /* I =120 */
(PID.TID 0000.0001)                 2.597126963772147E+05,      /* I =121 */
(PID.TID 0000.0001)                 2.487693460283865E+05,      /* I =122 */
(PID.TID 0000.0001)                 2.361211699596122E+05,      /* I =123 */
(PID.TID 0000.0001)                 2.213884732245467E+05,      /* I =124 */
(PID.TID 0000.0001)                 2.038999045536999E+05,      /* I =125 */
(PID.TID 0000.0001)                 1.823321598773926E+05,      /* I =126 */
(PID.TID 0000.0001)                 1.534505834330338E+05,      /* I =127 */
(PID.TID 0000.0001)     2 @  1.009837800879055E+05,             /* I =128:129 */
(PID.TID 0000.0001)                 1.534505834330338E+05,      /* I =130 */
(PID.TID 0000.0001)                 1.823321598773926E+05,      /* I =131 */
(PID.TID 0000.0001)                 2.038999045536999E+05,      /* I =132 */
(PID.TID 0000.0001)                 2.213884732245467E+05,      /* I =133 */
(PID.TID 0000.0001)                 2.361211699596122E+05,      /* I =134 */
(PID.TID 0000.0001)                 2.487693460283865E+05,      /* I =135 */
(PID.TID 0000.0001)                 2.597126963772147E+05,      /* I =136 */
(PID.TID 0000.0001)                 2.691790288994575E+05,      /* I =137 */
(PID.TID 0000.0001)                 2.773091043277394E+05,      /* I =138 */
(PID.TID 0000.0001)                 2.841906470085516E+05,      /* I =139 */
(PID.TID 0000.0001)                 2.898778860929753E+05,      /* I =140 */
(PID.TID 0000.0001)                 2.944035815526416E+05,      /* I =141 */
(PID.TID 0000.0001)                 2.977867909042096E+05,      /* I =142 */
(PID.TID 0000.0001)                 3.000380090330854E+05,      /* I =143 */
(PID.TID 0000.0001)     2 @  3.011625828699101E+05,             /* I =144:145 */
(PID.TID 0000.0001)                 3.000380090330854E+05,      /* I =146 */
(PID.TID 0000.0001)                 2.977867909042096E+05,      /* I =147 */
(PID.TID 0000.0001)                 2.944035815526416E+05,      /* I =148 */
(PID.TID 0000.0001)                 2.898778860929753E+05,      /* I =149 */
(PID.TID 0000.0001)                 2.841906470085516E+05,      /* I =150 */
(PID.TID 0000.0001)                 2.773091043277394E+05,      /* I =151 */
(PID.TID 0000.0001)                 2.691790288994575E+05,      /* I =152 */
(PID.TID 0000.0001)                 2.597126963772147E+05,      /* I =153 */
(PID.TID 0000.0001)                 2.487693460283865E+05,      /* I =154 */
(PID.TID 0000.0001)                 2.361211699596122E+05,      /* I =155 */
(PID.TID 0000.0001)                 2.213884732245467E+05,      /* I =156 */
(PID.TID 0000.0001)                 2.038999045536999E+05,      /* I =157 */
(PID.TID 0000.0001)                 1.823321598773926E+05,      /* I =158 */
(PID.TID 0000.0001)                 1.534505834330338E+05,      /* I =159 */
(PID.TID 0000.0001)     2 @  1.009837800879055E+05,             /* I =160:161 */
(PID.TID 0000.0001)                 1.534505834330338E+05,      /* I =162 */
(PID.TID 0000.0001)                 1.823321598773926E+05,      /* I =163 */
(PID.TID 0000.0001)                 2.038999045536999E+05,      /* I =164 */
(PID.TID 0000.0001)                 2.213884732245467E+05,      /* I =165 */
(PID.TID 0000.0001)                 2.361211699596122E+05,      /* I =166 */
(PID.TID 0000.0001)                 2.487693460283865E+05,      /* I =167 */
(PID.TID 0000.0001)                 2.597126963772147E+05,      /* I =168 */
(PID.TID 0000.0001)                 2.691790288994575E+05,      /* I =169 */
(PID.TID 0000.0001)                 2.773091043277394E+05,      /* I =170 */
(PID.TID 0000.0001)                 2.841906470085516E+05,      /* I =171 */
(PID.TID 0000.0001)                 2.898778860929753E+05,      /* I =172 */
(PID.TID 0000.0001)                 2.944035815526416E+05,      /* I =173 */
(PID.TID 0000.0001)                 2.977867909042096E+05,      /* I =174 */
(PID.TID 0000.0001)                 3.000380090330854E+05,      /* I =175 */
(PID.TID 0000.0001)     2 @  3.011625828699101E+05,             /* I =176:177 */
(PID.TID 0000.0001)                 3.000380090330854E+05,      /* I =178 */
(PID.TID 0000.0001)                 2.977867909042096E+05,      /* I =179 */
(PID.TID 0000.0001)                 2.944035815526416E+05,      /* I =180 */
(PID.TID 0000.0001)                 2.898778860929753E+05,      /* I =181 */
(PID.TID 0000.0001)                 2.841906470085516E+05,      /* I =182 */
(PID.TID 0000.0001)                 2.773091043277394E+05,      /* I =183 */
(PID.TID 0000.0001)                 2.691790288994575E+05,      /* I =184 */
(PID.TID 0000.0001)                 2.597126963772147E+05,      /* I =185 */
(PID.TID 0000.0001)                 2.487693460283865E+05,      /* I =186 */
(PID.TID 0000.0001)                 2.361211699596122E+05,      /* I =187 */
(PID.TID 0000.0001)                 2.213884732245467E+05,      /* I =188 */
(PID.TID 0000.0001)                 2.038999045536999E+05,      /* I =189 */
(PID.TID 0000.0001)                 1.823321598773926E+05,      /* I =190 */
(PID.TID 0000.0001)                 1.534505834330338E+05,      /* I =191 */
(PID.TID 0000.0001)                 1.009837800879055E+05       /* I =192 */
(PID.TID 0000.0001)     ;
(PID.TID 0000.0001) dxG =  /* dxG(1,:,1,:) ( units: m ) */
(PID.TID 0000.0001)                 1.009837800879055E+05,      /* J =  1 */
(PID.TID 0000.0001)                 1.403701524205399E+05,      /* J =  2 */
(PID.TID 0000.0001)                 1.716197227386011E+05,      /* J =  3 */
(PID.TID 0000.0001)                 1.950254041626018E+05,      /* J =  4 */
(PID.TID 0000.0001)                 2.138410773065497E+05,      /* J =  5 */
(PID.TID 0000.0001)                 2.295958105911512E+05,      /* J =  6 */
(PID.TID 0000.0001)                 2.430829951739083E+05,      /* J =  7 */
(PID.TID 0000.0001)                 2.547526806712889E+05,      /* J =  8 */
(PID.TID 0000.0001)                 2.648750305193301E+05,      /* J =  9 */
(PID.TID 0000.0001)                 2.736173771018112E+05,      /* J = 10 */
(PID.TID 0000.0001)                 2.810845823202647E+05,      /* J = 11 */
(PID.TID 0000.0001)                 2.873420591008078E+05,      /* J = 12 */
(PID.TID 0000.0001)                 2.924298293668651E+05,      /* J = 13 */
(PID.TID 0000.0001)                 2.963715635865306E+05,      /* J = 14 */
(PID.TID 0000.0001)                 2.991805843171258E+05,      /* J = 15 */
(PID.TID 0000.0001)                 3.008638765647886E+05,      /* J = 16 */
(PID.TID 0000.0001)                 3.014246674484008E+05,      /* J = 17 */
(PID.TID 0000.0001)                 3.008638765647886E+05,      /* J = 18 */
(PID.TID 0000.0001)                 2.991805843171258E+05,      /* J = 19 */
(PID.TID 0000.0001)                 2.963715635865306E+05,      /* J = 20 */
(PID.TID 0000.0001)                 2.924298293668651E+05,      /* J = 21 */
(PID.TID 0000.0001)                 2.873420591008078E+05,      /* J = 22 */
(PID.TID 0000.0001)                 2.810845823202647E+05,      /* J = 23 */
(PID.TID 0000.0001)                 2.736173771018112E+05,      /* J = 24 */
(PID.TID 0000.0001)                 2.648750305193301E+05,      /* J = 25 */
(PID.TID 0000.0001)                 2.547526806712889E+05,      /* J = 26 */
(PID.TID 0000.0001)                 2.430829951739083E+05,      /* J = 27 */
(PID.TID 0000.0001)                 2.295958105911512E+05,      /* J = 28 */
(PID.TID 0000.0001)                 2.138410773065497E+05,      /* J = 29 */
(PID.TID 0000.0001)                 1.950254041626018E+05,      /* J = 30 */
(PID.TID 0000.0001)                 1.716197227386011E+05,      /* J = 31 */
(PID.TID 0000.0001)                 1.403701524205399E+05       /* J = 32 */
(PID.TID 0000.0001)     ;
(PID.TID 0000.0001) dyG =  /* dyG(:,1,:,1) ( units: m ) */
(PID.TID 0000.0001)                 1.009837800879055E+05,      /* I =  1 */
(PID.TID 0000.0001)                 1.403701524205399E+05,      /* I =  2 */
(PID.TID 0000.0001)                 1.716197227386011E+05,      /* I =  3 */
(PID.TID 0000.0001)                 1.950254041626018E+05,      /* I =  4 */
(PID.TID 0000.0001)                 2.138410773065497E+05,      /* I =  5 */
(PID.TID 0000.0001)                 2.295958105911512E+05,      /* I =  6 */
(PID.TID 0000.0001)                 2.430829951739083E+05,      /* I =  7 */
(PID.TID 0000.0001)                 2.547526806712889E+05,      /* I =  8 */
(PID.TID 0000.0001)                 2.648750305193301E+05,      /* I =  9 */
(PID.TID 0000.0001)                 2.736173771018112E+05,      /* I = 10 */
(PID.TID 0000.0001)                 2.810845823202647E+05,      /* I = 11 */
(PID.TID 0000.0001)                 2.873420591008078E+05,      /* I = 12 */
(PID.TID 0000.0001)                 2.924298293668651E+05,      /* I = 13 */
(PID.TID 0000.0001)                 2.963715635865306E+05,      /* I = 14 */
(PID.TID 0000.0001)                 2.991805843171258E+05,      /* I = 15 */
(PID.TID 0000.0001)                 3.008638765647886E+05,      /* I = 16 */
(PID.TID 0000.0001)                 3.014246674484008E+05,      /* I = 17 */
(PID.TID 0000.0001)                 3.008638765647886E+05,      /* I = 18 */
(PID.TID 0000.0001)                 2.991805843171258E+05,      /* I = 19 */
(PID.TID 0000.0001)                 2.963715635865306E+05,      /* I = 20 */
(PID.TID 0000.0001)                 2.924298293668651E+05,      /* I = 21 */
(PID.TID 0000.0001)                 2.873420591008078E+05,      /* I = 22 */
(PID.TID 0000.0001)                 2.810845823202647E+05,      /* I = 23 */
(PID.TID 0000.0001)                 2.736173771018112E+05,      /* I = 24 */
(PID.TID 0000.0001)                 2.648750305193301E+05,      /* I = 25 */
(PID.TID 0000.0001)                 2.547526806712889E+05,      /* I = 26 */
(PID.TID 0000.0001)                 2.430829951739083E+05,      /* I = 27 */
(PID.TID 0000.0001)                 2.295958105911512E+05,      /* I = 28 */
(PID.TID 0000.0001)                 2.138410773065497E+05,      /* I = 29 */
(PID.TID 0000.0001)                 1.950254041626018E+05,      /* I = 30 */
(PID.TID 0000.0001)                 1.716197227386011E+05,      /* I = 31 */
(PID.TID 0000.0001)                 1.403701524205399E+05,      /* I = 32 */
(PID.TID 0000.0001)                 1.009837800879055E+05,      /* I = 33 */
(PID.TID 0000.0001)                 1.403701524205399E+05,      /* I = 34 */
(PID.TID 0000.0001)                 1.716197227386011E+05,      /* I = 35 */
(PID.TID 0000.0001)                 1.950254041626018E+05,      /* I = 36 */
(PID.TID 0000.0001)                 2.138410773065497E+05,      /* I = 37 */
(PID.TID 0000.0001)                 2.295958105911512E+05,      /* I = 38 */
(PID.TID 0000.0001)                 2.430829951739083E+05,      /* I = 39 */
(PID.TID 0000.0001)                 2.547526806712889E+05,      /* I = 40 */
(PID.TID 0000.0001)                 2.648750305193301E+05,      /* I = 41 */
(PID.TID 0000.0001)                 2.736173771018112E+05,      /* I = 42 */
(PID.TID 0000.0001)                 2.810845823202647E+05,      /* I = 43 */
(PID.TID 0000.0001)                 2.873420591008078E+05,      /* I = 44 */
(PID.TID 0000.0001)                 2.924298293668651E+05,      /* I = 45 */
(PID.TID 0000.0001)                 2.963715635865306E+05,      /* I = 46 */
(PID.TID 0000.0001)                 2.991805843171258E+05,      /* I = 47 */
(PID.TID 0000.0001)                 3.008638765647886E+05,      /* I = 48 */
(PID.TID 0000.0001)                 3.014246674484008E+05,      /* I = 49 */
(PID.TID 0000.0001)                 3.008638765647886E+05,      /* I = 50 */
(PID.TID 0000.0001)                 2.991805843171258E+05,      /* I = 51 */
(PID.TID 0000.0001)                 2.963715635865306E+05,      /* I = 52 */
(PID.TID 0000.0001)                 2.924298293668651E+05,      /* I = 53 */
(PID.TID 0000.0001)                 2.873420591008078E+05,      /* I = 54 */
(PID.TID 0000.0001)                 2.810845823202647E+05,      /* I = 55 */
(PID.TID 0000.0001)                 2.736173771018112E+05,      /* I = 56 */
(PID.TID 0000.0001)                 2.648750305193301E+05,      /* I = 57 */
(PID.TID 0000.0001)                 2.547526806712889E+05,      /* I = 58 */
(PID.TID 0000.0001)                 2.430829951739083E+05,      /* I = 59 */
(PID.TID 0000.0001)                 2.295958105911512E+05,      /* I = 60 */
(PID.TID 0000.0001)                 2.138410773065497E+05,      /* I = 61 */
(PID.TID 0000.0001)                 1.950254041626018E+05,      /* I = 62 */
(PID.TID 0000.0001)                 1.716197227386011E+05,      /* I = 63 */
(PID.TID 0000.0001)                 1.403701524205399E+05,      /* I = 64 */
(PID.TID 0000.0001)                 1.009837800879055E+05,      /* I = 65 */
(PID.TID 0000.0001)                 1.403701524205399E+05,      /* I = 66 */
(PID.TID 0000.0001)                 1.716197227386011E+05,      /* I = 67 */
(PID.TID 0000.0001)                 1.950254041626018E+05,      /* I = 68 */
(PID.TID 0000.0001)                 2.138410773065497E+05,      /* I = 69 */
(PID.TID 0000.0001)                 2.295958105911512E+05,      /* I = 70 */
(PID.TID 0000.0001)                 2.430829951739083E+05,      /* I = 71 */
(PID.TID 0000.0001)                 2.547526806712889E+05,      /* I = 72 */
(PID.TID 0000.0001)                 2.648750305193301E+05,      /* I = 73 */
(PID.TID 0000.0001)                 2.736173771018112E+05,      /* I = 74 */
(PID.TID 0000.0001)                 2.810845823202647E+05,      /* I = 75 */
(PID.TID 0000.0001)                 2.873420591008078E+05,      /* I = 76 */
(PID.TID 0000.0001)                 2.924298293668651E+05,      /* I = 77 */
(PID.TID 0000.0001)                 2.963715635865306E+05,      /* I = 78 */
(PID.TID 0000.0001)                 2.991805843171258E+05,      /* I = 79 */
(PID.TID 0000.0001)                 3.008638765647886E+05,      /* I = 80 */
(PID.TID 0000.0001)                 3.014246674484008E+05,      /* I = 81 */
(PID.TID 0000.0001)                 3.008638765647886E+05,      /* I = 82 */
(PID.TID 0000.0001)                 2.991805843171258E+05,      /* I = 83 */
(PID.TID 0000.0001)                 2.963715635865306E+05,      /* I = 84 */
(PID.TID 0000.0001)                 2.924298293668651E+05,      /* I = 85 */
(PID.TID 0000.0001)                 2.873420591008078E+05,      /* I = 86 */
(PID.TID 0000.0001)                 2.810845823202647E+05,      /* I = 87 */
(PID.TID 0000.0001)                 2.736173771018112E+05,      /* I = 88 */
(PID.TID 0000.0001)                 2.648750305193301E+05,      /* I = 89 */
(PID.TID 0000.0001)                 2.547526806712889E+05,      /* I = 90 */
(PID.TID 0000.0001)                 2.430829951739083E+05,      /* I = 91 */
(PID.TID 0000.0001)                 2.295958105911512E+05,      /* I = 92 */
(PID.TID 0000.0001)                 2.138410773065497E+05,      /* I = 93 */
(PID.TID 0000.0001)                 1.950254041626018E+05,      /* I = 94 */
(PID.TID 0000.0001)                 1.716197227386011E+05,      /* I = 95 */
(PID.TID 0000.0001)                 1.403701524205399E+05,      /* I = 96 */
(PID.TID 0000.0001)                 1.009837800879055E+05,      /* I = 97 */
(PID.TID 0000.0001)                 1.403701524205399E+05,      /* I = 98 */
(PID.TID 0000.0001)                 1.716197227386011E+05,      /* I = 99 */
(PID.TID 0000.0001)                 1.950254041626018E+05,      /* I =100 */
(PID.TID 0000.0001)                 2.138410773065497E+05,      /* I =101 */
(PID.TID 0000.0001)                 2.295958105911512E+05,      /* I =102 */
(PID.TID 0000.0001)                 2.430829951739083E+05,      /* I =103 */
(PID.TID 0000.0001)                 2.547526806712889E+05,      /* I =104 */
(PID.TID 0000.0001)                 2.648750305193301E+05,      /* I =105 */
(PID.TID 0000.0001)                 2.736173771018112E+05,      /* I =106 */
(PID.TID 0000.0001)                 2.810845823202647E+05,      /* I =107 */
(PID.TID 0000.0001)                 2.873420591008078E+05,      /* I =108 */
(PID.TID 0000.0001)                 2.924298293668651E+05,      /* I =109 */
(PID.TID 0000.0001)                 2.963715635865306E+05,      /* I =110 */
(PID.TID 0000.0001)                 2.991805843171258E+05,      /* I =111 */
(PID.TID 0000.0001)                 3.008638765647886E+05,      /* I =112 */
(PID.TID 0000.0001)                 3.014246674484008E+05,      /* I =113 */
(PID.TID 0000.0001)                 3.008638765647886E+05,      /* I =114 */
(PID.TID 0000.0001)                 2.991805843171258E+05,      /* I =115 */
(PID.TID 0000.0001)                 2.963715635865306E+05,      /* I =116 */
(PID.TID 0000.0001)                 2.924298293668651E+05,      /* I =117 */
(PID.TID 0000.0001)                 2.873420591008078E+05,      /* I =118 */
(PID.TID 0000.0001)                 2.810845823202647E+05,      /* I =119 */
(PID.TID 0000.0001)                 2.736173771018112E+05,      /* I =120 */
(PID.TID 0000.0001)                 2.648750305193301E+05,      /* I =121 */
(PID.TID 0000.0001)                 2.547526806712889E+05,      /* I =122 */
(PID.TID 0000.0001)                 2.430829951739083E+05,      /* I =123 */
(PID.TID 0000.0001)                 2.295958105911512E+05,      /* I =124 */
(PID.TID 0000.0001)                 2.138410773065497E+05,      /* I =125 */
(PID.TID 0000.0001)                 1.950254041626018E+05,      /* I =126 */
(PID.TID 0000.0001)                 1.716197227386011E+05,      /* I =127 */
(PID.TID 0000.0001)                 1.403701524205399E+05,      /* I =128 */
(PID.TID 0000.0001)                 1.009837800879055E+05,      /* I =129 */
(PID.TID 0000.0001)                 1.403701524205399E+05,      /* I =130 */
(PID.TID 0000.0001)                 1.716197227386011E+05,      /* I =131 */
(PID.TID 0000.0001)                 1.950254041626018E+05,      /* I =132 */
(PID.TID 0000.0001)                 2.138410773065497E+05,      /* I =133 */
(PID.TID 0000.0001)                 2.295958105911512E+05,      /* I =134 */
(PID.TID 0000.0001)                 2.430829951739083E+05,      /* I =135 */
(PID.TID 0000.0001)                 2.547526806712889E+05,      /* I =136 */
(PID.TID 0000.0001)                 2.648750305193301E+05,      /* I =137 */
(PID.TID 0000.0001)                 2.736173771018112E+05,      /* I =138 */
(PID.TID 0000.0001)                 2.810845823202647E+05,      /* I =139 */
(PID.TID 0000.0001)                 2.873420591008078E+05,      /* I =140 */
(PID.TID 0000.0001)                 2.924298293668651E+05,      /* I =141 */
(PID.TID 0000.0001)                 2.963715635865306E+05,      /* I =142 */
(PID.TID 0000.0001)                 2.991805843171258E+05,      /* I =143 */
(PID.TID 0000.0001)                 3.008638765647886E+05,      /* I =144 */
(PID.TID 0000.0001)                 3.014246674484008E+05,      /* I =145 */
(PID.TID 0000.0001)                 3.008638765647886E+05,      /* I =146 */
(PID.TID 0000.0001)                 2.991805843171258E+05,      /* I =147 */
(PID.TID 0000.0001)                 2.963715635865306E+05,      /* I =148 */
(PID.TID 0000.0001)                 2.924298293668651E+05,      /* I =149 */
(PID.TID 0000.0001)                 2.873420591008078E+05,      /* I =150 */
(PID.TID 0000.0001)                 2.810845823202647E+05,      /* I =151 */
(PID.TID 0000.0001)                 2.736173771018112E+05,      /* I =152 */
(PID.TID 0000.0001)                 2.648750305193301E+05,      /* I =153 */
(PID.TID 0000.0001)                 2.547526806712889E+05,      /* I =154 */
(PID.TID 0000.0001)                 2.430829951739083E+05,      /* I =155 */
(PID.TID 0000.0001)                 2.295958105911512E+05,      /* I =156 */
(PID.TID 0000.0001)                 2.138410773065497E+05,      /* I =157 */
(PID.TID 0000.0001)                 1.950254041626018E+05,      /* I =158 */
(PID.TID 0000.0001)                 1.716197227386011E+05,      /* I =159 */
(PID.TID 0000.0001)                 1.403701524205399E+05,      /* I =160 */
(PID.TID 0000.0001)                 1.009837800879055E+05,      /* I =161 */
(PID.TID 0000.0001)                 1.403701524205399E+05,      /* I =162 */
(PID.TID 0000.0001)                 1.716197227386011E+05,      /* I =163 */
(PID.TID 0000.0001)                 1.950254041626018E+05,      /* I =164 */
(PID.TID 0000.0001)                 2.138410773065497E+05,      /* I =165 */
(PID.TID 0000.0001)                 2.295958105911512E+05,      /* I =166 */
(PID.TID 0000.0001)                 2.430829951739083E+05,      /* I =167 */
(PID.TID 0000.0001)                 2.547526806712889E+05,      /* I =168 */
(PID.TID 0000.0001)                 2.648750305193301E+05,      /* I =169 */
(PID.TID 0000.0001)                 2.736173771018112E+05,      /* I =170 */
(PID.TID 0000.0001)                 2.810845823202647E+05,      /* I =171 */
(PID.TID 0000.0001)                 2.873420591008078E+05,      /* I =172 */
(PID.TID 0000.0001)                 2.924298293668651E+05,      /* I =173 */
(PID.TID 0000.0001)                 2.963715635865306E+05,      /* I =174 */
(PID.TID 0000.0001)                 2.991805843171258E+05,      /* I =175 */
(PID.TID 0000.0001)                 3.008638765647886E+05,      /* I =176 */
(PID.TID 0000.0001)                 3.014246674484008E+05,      /* I =177 */
(PID.TID 0000.0001)                 3.008638765647886E+05,      /* I =178 */
(PID.TID 0000.0001)                 2.991805843171258E+05,      /* I =179 */
(PID.TID 0000.0001)                 2.963715635865306E+05,      /* I =180 */
(PID.TID 0000.0001)                 2.924298293668651E+05,      /* I =181 */
(PID.TID 0000.0001)                 2.873420591008078E+05,      /* I =182 */
(PID.TID 0000.0001)                 2.810845823202647E+05,      /* I =183 */
(PID.TID 0000.0001)                 2.736173771018112E+05,      /* I =184 */
(PID.TID 0000.0001)                 2.648750305193301E+05,      /* I =185 */
(PID.TID 0000.0001)                 2.547526806712889E+05,      /* I =186 */
(PID.TID 0000.0001)                 2.430829951739083E+05,      /* I =187 */
(PID.TID 0000.0001)                 2.295958105911512E+05,      /* I =188 */
(PID.TID 0000.0001)                 2.138410773065497E+05,      /* I =189 */
(PID.TID 0000.0001)                 1.950254041626018E+05,      /* I =190 */
(PID.TID 0000.0001)                 1.716197227386011E+05,      /* I =191 */
(PID.TID 0000.0001)                 1.403701524205399E+05       /* I =192 */
(PID.TID 0000.0001)     ;
(PID.TID 0000.0001) dyG =  /* dyG(1,:,1,:) ( units: m ) */
(PID.TID 0000.0001)                 1.009837800879055E+05,      /* J =  1 */
(PID.TID 0000.0001)                 1.534505834330338E+05,      /* J =  2 */
(PID.TID 0000.0001)                 1.823321598773926E+05,      /* J =  3 */
(PID.TID 0000.0001)                 2.038999045536999E+05,      /* J =  4 */
(PID.TID 0000.0001)                 2.213884732245467E+05,      /* J =  5 */
(PID.TID 0000.0001)                 2.361211699596122E+05,      /* J =  6 */
(PID.TID 0000.0001)                 2.487693460283865E+05,      /* J =  7 */
(PID.TID 0000.0001)                 2.597126963772147E+05,      /* J =  8 */
(PID.TID 0000.0001)                 2.691790288994575E+05,      /* J =  9 */
(PID.TID 0000.0001)                 2.773091043277394E+05,      /* J = 10 */
(PID.TID 0000.0001)                 2.841906470085516E+05,      /* J = 11 */
(PID.TID 0000.0001)                 2.898778860929753E+05,      /* J = 12 */
(PID.TID 0000.0001)                 2.944035815526416E+05,      /* J = 13 */
(PID.TID 0000.0001)                 2.977867909042096E+05,      /* J = 14 */
(PID.TID 0000.0001)                 3.000380090330854E+05,      /* J = 15 */
(PID.TID 0000.0001)     2 @  3.011625828699101E+05,             /* J = 16: 17 */
(PID.TID 0000.0001)                 3.000380090330854E+05,      /* J = 18 */
(PID.TID 0000.0001)                 2.977867909042096E+05,      /* J = 19 */
(PID.TID 0000.0001)                 2.944035815526416E+05,      /* J = 20 */
(PID.TID 0000.0001)                 2.898778860929753E+05,      /* J = 21 */
(PID.TID 0000.0001)                 2.841906470085516E+05,      /* J = 22 */
(PID.TID 0000.0001)                 2.773091043277394E+05,      /* J = 23 */
(PID.TID 0000.0001)                 2.691790288994575E+05,      /* J = 24 */
(PID.TID 0000.0001)                 2.597126963772147E+05,      /* J = 25 */
(PID.TID 0000.0001)                 2.487693460283865E+05,      /* J = 26 */
(PID.TID 0000.0001)                 2.361211699596122E+05,      /* J = 27 */
(PID.TID 0000.0001)                 2.213884732245467E+05,      /* J = 28 */
(PID.TID 0000.0001)                 2.038999045536999E+05,      /* J = 29 */
(PID.TID 0000.0001)                 1.823321598773926E+05,      /* J = 30 */
(PID.TID 0000.0001)                 1.534505834330338E+05,      /* J = 31 */
(PID.TID 0000.0001)                 1.009837800879055E+05       /* J = 32 */
(PID.TID 0000.0001)     ;
(PID.TID 0000.0001) dxC =  /* dxC(:,1,:,1) ( units: m ) */
(PID.TID 0000.0001)                 1.135373000692312E+05,      /* I =  1 */
(PID.TID 0000.0001)                 1.391343389937106E+05,      /* I =  2 */
(PID.TID 0000.0001)                 1.709574999026267E+05,      /* I =  3 */
(PID.TID 0000.0001)                 1.946503699269892E+05,      /* I =  4 */
(PID.TID 0000.0001)                 2.135964483342134E+05,      /* I =  5 */
(PID.TID 0000.0001)                 2.294195678257306E+05,      /* I =  6 */
(PID.TID 0000.0001)                 2.429464709770498E+05,      /* I =  7 */
(PID.TID 0000.0001)                 2.546408290696998E+05,      /* I =  8 */
(PID.TID 0000.0001)                 2.647791839299727E+05,      /* I =  9 */
(PID.TID 0000.0001)                 2.735321911346108E+05,      /* I = 10 */
(PID.TID 0000.0001)                 2.810065951609633E+05,      /* I = 11 */
(PID.TID 0000.0001)                 2.872689479506990E+05,      /* I = 12 */
(PID.TID 0000.0001)                 2.923599955312932E+05,      /* I = 13 */
(PID.TID 0000.0001)                 2.963038832565530E+05,      /* I = 14 */
(PID.TID 0000.0001)                 2.991142470004740E+05,      /* I = 15 */
(PID.TID 0000.0001)                 3.007982711627968E+05,      /* I = 16 */
(PID.TID 0000.0001)                 3.013593857228136E+05,      /* I = 17 */
(PID.TID 0000.0001)                 3.007982711627968E+05,      /* I = 18 */
(PID.TID 0000.0001)                 2.991142470004740E+05,      /* I = 19 */
(PID.TID 0000.0001)                 2.963038832565530E+05,      /* I = 20 */
(PID.TID 0000.0001)                 2.923599955312932E+05,      /* I = 21 */
(PID.TID 0000.0001)                 2.872689479506990E+05,      /* I = 22 */
(PID.TID 0000.0001)                 2.810065951609633E+05,      /* I = 23 */
(PID.TID 0000.0001)                 2.735321911346108E+05,      /* I = 24 */
(PID.TID 0000.0001)                 2.647791839299727E+05,      /* I = 25 */
(PID.TID 0000.0001)                 2.546408290696998E+05,      /* I = 26 */
(PID.TID 0000.0001)                 2.429464709770498E+05,      /* I = 27 */
(PID.TID 0000.0001)                 2.294195678257306E+05,      /* I = 28 */
(PID.TID 0000.0001)                 2.135964483342134E+05,      /* I = 29 */
(PID.TID 0000.0001)                 1.946503699269892E+05,      /* I = 30 */
(PID.TID 0000.0001)                 1.709574999026267E+05,      /* I = 31 */
(PID.TID 0000.0001)                 1.391343389937106E+05,      /* I = 32 */
(PID.TID 0000.0001)                 1.135373000692312E+05,      /* I = 33 */
(PID.TID 0000.0001)                 1.391343389937106E+05,      /* I = 34 */
(PID.TID 0000.0001)                 1.709574999026267E+05,      /* I = 35 */
(PID.TID 0000.0001)                 1.946503699269892E+05,      /* I = 36 */
(PID.TID 0000.0001)                 2.135964483342134E+05,      /* I = 37 */
(PID.TID 0000.0001)                 2.294195678257306E+05,      /* I = 38 */
(PID.TID 0000.0001)                 2.429464709770498E+05,      /* I = 39 */
(PID.TID 0000.0001)                 2.546408290696998E+05,      /* I = 40 */
(PID.TID 0000.0001)                 2.647791839299727E+05,      /* I = 41 */
(PID.TID 0000.0001)                 2.735321911346108E+05,      /* I = 42 */
(PID.TID 0000.0001)                 2.810065951609633E+05,      /* I = 43 */
(PID.TID 0000.0001)                 2.872689479506990E+05,      /* I = 44 */
(PID.TID 0000.0001)                 2.923599955312932E+05,      /* I = 45 */
(PID.TID 0000.0001)                 2.963038832565530E+05,      /* I = 46 */
(PID.TID 0000.0001)                 2.991142470004740E+05,      /* I = 47 */
(PID.TID 0000.0001)                 3.007982711627968E+05,      /* I = 48 */
(PID.TID 0000.0001)                 3.013593857228136E+05,      /* I = 49 */
(PID.TID 0000.0001)                 3.007982711627968E+05,      /* I = 50 */
(PID.TID 0000.0001)                 2.991142470004740E+05,      /* I = 51 */
(PID.TID 0000.0001)                 2.963038832565530E+05,      /* I = 52 */
(PID.TID 0000.0001)                 2.923599955312932E+05,      /* I = 53 */
(PID.TID 0000.0001)                 2.872689479506990E+05,      /* I = 54 */
(PID.TID 0000.0001)                 2.810065951609633E+05,      /* I = 55 */
(PID.TID 0000.0001)                 2.735321911346108E+05,      /* I = 56 */
(PID.TID 0000.0001)                 2.647791839299727E+05,      /* I = 57 */
(PID.TID 0000.0001)                 2.546408290696998E+05,      /* I = 58 */
(PID.TID 0000.0001)                 2.429464709770498E+05,      /* I = 59 */
(PID.TID 0000.0001)                 2.294195678257306E+05,      /* I = 60 */
(PID.TID 0000.0001)                 2.135964483342134E+05,      /* I = 61 */
(PID.TID 0000.0001)                 1.946503699269892E+05,      /* I = 62 */
(PID.TID 0000.0001)                 1.709574999026267E+05,      /* I = 63 */
(PID.TID 0000.0001)                 1.391343389937106E+05,      /* I = 64 */
(PID.TID 0000.0001)                 1.135373000692312E+05,      /* I = 65 */
(PID.TID 0000.0001)                 1.391343389937106E+05,      /* I = 66 */
(PID.TID 0000.0001)                 1.709574999026267E+05,      /* I = 67 */
(PID.TID 0000.0001)                 1.946503699269892E+05,      /* I = 68 */
(PID.TID 0000.0001)                 2.135964483342134E+05,      /* I = 69 */
(PID.TID 0000.0001)                 2.294195678257306E+05,      /* I = 70 */
(PID.TID 0000.0001)                 2.429464709770498E+05,      /* I = 71 */
(PID.TID 0000.0001)                 2.546408290696998E+05,      /* I = 72 */
(PID.TID 0000.0001)                 2.647791839299727E+05,      /* I = 73 */
(PID.TID 0000.0001)                 2.735321911346108E+05,      /* I = 74 */
(PID.TID 0000.0001)                 2.810065951609633E+05,      /* I = 75 */
(PID.TID 0000.0001)                 2.872689479506990E+05,      /* I = 76 */
(PID.TID 0000.0001)                 2.923599955312932E+05,      /* I = 77 */
(PID.TID 0000.0001)                 2.963038832565530E+05,      /* I = 78 */
(PID.TID 0000.0001)                 2.991142470004740E+05,      /* I = 79 */
(PID.TID 0000.0001)                 3.007982711627968E+05,      /* I = 80 */
(PID.TID 0000.0001)                 3.013593857228136E+05,      /* I = 81 */
(PID.TID 0000.0001)                 3.007982711627968E+05,      /* I = 82 */
(PID.TID 0000.0001)                 2.991142470004740E+05,      /* I = 83 */
(PID.TID 0000.0001)                 2.963038832565530E+05,      /* I = 84 */
(PID.TID 0000.0001)                 2.923599955312932E+05,      /* I = 85 */
(PID.TID 0000.0001)                 2.872689479506990E+05,      /* I = 86 */
(PID.TID 0000.0001)                 2.810065951609633E+05,      /* I = 87 */
(PID.TID 0000.0001)                 2.735321911346108E+05,      /* I = 88 */
(PID.TID 0000.0001)                 2.647791839299727E+05,      /* I = 89 */
(PID.TID 0000.0001)                 2.546408290696998E+05,      /* I = 90 */
(PID.TID 0000.0001)                 2.429464709770498E+05,      /* I = 91 */
(PID.TID 0000.0001)                 2.294195678257306E+05,      /* I = 92 */
(PID.TID 0000.0001)                 2.135964483342134E+05,      /* I = 93 */
(PID.TID 0000.0001)                 1.946503699269892E+05,      /* I = 94 */
(PID.TID 0000.0001)                 1.709574999026267E+05,      /* I = 95 */
(PID.TID 0000.0001)                 1.391343389937106E+05,      /* I = 96 */
(PID.TID 0000.0001)                 1.135373000692312E+05,      /* I = 97 */
(PID.TID 0000.0001)                 1.391343389937106E+05,      /* I = 98 */
(PID.TID 0000.0001)                 1.709574999026267E+05,      /* I = 99 */
(PID.TID 0000.0001)                 1.946503699269892E+05,      /* I =100 */
(PID.TID 0000.0001)                 2.135964483342134E+05,      /* I =101 */
(PID.TID 0000.0001)                 2.294195678257306E+05,      /* I =102 */
(PID.TID 0000.0001)                 2.429464709770498E+05,      /* I =103 */
(PID.TID 0000.0001)                 2.546408290696998E+05,      /* I =104 */
(PID.TID 0000.0001)                 2.647791839299727E+05,      /* I =105 */
(PID.TID 0000.0001)                 2.735321911346108E+05,      /* I =106 */
(PID.TID 0000.0001)                 2.810065951609633E+05,      /* I =107 */
(PID.TID 0000.0001)                 2.872689479506990E+05,      /* I =108 */
(PID.TID 0000.0001)                 2.923599955312932E+05,      /* I =109 */
(PID.TID 0000.0001)                 2.963038832565530E+05,      /* I =110 */
(PID.TID 0000.0001)                 2.991142470004740E+05,      /* I =111 */
(PID.TID 0000.0001)                 3.007982711627968E+05,      /* I =112 */
(PID.TID 0000.0001)                 3.013593857228136E+05,      /* I =113 */
(PID.TID 0000.0001)                 3.007982711627968E+05,      /* I =114 */
(PID.TID 0000.0001)                 2.991142470004740E+05,      /* I =115 */
(PID.TID 0000.0001)                 2.963038832565530E+05,      /* I =116 */
(PID.TID 0000.0001)                 2.923599955312932E+05,      /* I =117 */
(PID.TID 0000.0001)                 2.872689479506990E+05,      /* I =118 */
(PID.TID 0000.0001)                 2.810065951609633E+05,      /* I =119 */
(PID.TID 0000.0001)                 2.735321911346108E+05,      /* I =120 */
(PID.TID 0000.0001)                 2.647791839299727E+05,      /* I =121 */
(PID.TID 0000.0001)                 2.546408290696998E+05,      /* I =122 */
(PID.TID 0000.0001)                 2.429464709770498E+05,      /* I =123 */
(PID.TID 0000.0001)                 2.294195678257306E+05,      /* I =124 */
(PID.TID 0000.0001)                 2.135964483342134E+05,      /* I =125 */
(PID.TID 0000.0001)                 1.946503699269892E+05,      /* I =126 */
(PID.TID 0000.0001)                 1.709574999026267E+05,      /* I =127 */
(PID.TID 0000.0001)                 1.391343389937106E+05,      /* I =128 */
(PID.TID 0000.0001)                 1.135373000692312E+05,      /* I =129 */
(PID.TID 0000.0001)                 1.391343389937106E+05,      /* I =130 */
(PID.TID 0000.0001)                 1.709574999026267E+05,      /* I =131 */
(PID.TID 0000.0001)                 1.946503699269892E+05,      /* I =132 */
(PID.TID 0000.0001)                 2.135964483342134E+05,      /* I =133 */
(PID.TID 0000.0001)                 2.294195678257306E+05,      /* I =134 */
(PID.TID 0000.0001)                 2.429464709770498E+05,      /* I =135 */
(PID.TID 0000.0001)                 2.546408290696998E+05,      /* I =136 */
(PID.TID 0000.0001)                 2.647791839299727E+05,      /* I =137 */
(PID.TID 0000.0001)                 2.735321911346108E+05,      /* I =138 */
(PID.TID 0000.0001)                 2.810065951609633E+05,      /* I =139 */
(PID.TID 0000.0001)                 2.872689479506990E+05,      /* I =140 */
(PID.TID 0000.0001)                 2.923599955312932E+05,      /* I =141 */
(PID.TID 0000.0001)                 2.963038832565530E+05,      /* I =142 */
(PID.TID 0000.0001)                 2.991142470004740E+05,      /* I =143 */
(PID.TID 0000.0001)                 3.007982711627968E+05,      /* I =144 */
(PID.TID 0000.0001)                 3.013593857228136E+05,      /* I =145 */
(PID.TID 0000.0001)                 3.007982711627968E+05,      /* I =146 */
(PID.TID 0000.0001)                 2.991142470004740E+05,      /* I =147 */
(PID.TID 0000.0001)                 2.963038832565530E+05,      /* I =148 */
(PID.TID 0000.0001)                 2.923599955312932E+05,      /* I =149 */
(PID.TID 0000.0001)                 2.872689479506990E+05,      /* I =150 */
(PID.TID 0000.0001)                 2.810065951609633E+05,      /* I =151 */
(PID.TID 0000.0001)                 2.735321911346108E+05,      /* I =152 */
(PID.TID 0000.0001)                 2.647791839299727E+05,      /* I =153 */
(PID.TID 0000.0001)                 2.546408290696998E+05,      /* I =154 */
(PID.TID 0000.0001)                 2.429464709770498E+05,      /* I =155 */
(PID.TID 0000.0001)                 2.294195678257306E+05,      /* I =156 */
(PID.TID 0000.0001)                 2.135964483342134E+05,      /* I =157 */
(PID.TID 0000.0001)                 1.946503699269892E+05,      /* I =158 */
(PID.TID 0000.0001)                 1.709574999026267E+05,      /* I =159 */
(PID.TID 0000.0001)                 1.391343389937106E+05,      /* I =160 */
(PID.TID 0000.0001)                 1.135373000692312E+05,      /* I =161 */
(PID.TID 0000.0001)                 1.391343389937106E+05,      /* I =162 */
(PID.TID 0000.0001)                 1.709574999026267E+05,      /* I =163 */
(PID.TID 0000.0001)                 1.946503699269892E+05,      /* I =164 */
(PID.TID 0000.0001)                 2.135964483342134E+05,      /* I =165 */
(PID.TID 0000.0001)                 2.294195678257306E+05,      /* I =166 */
(PID.TID 0000.0001)                 2.429464709770498E+05,      /* I =167 */
(PID.TID 0000.0001)                 2.546408290696998E+05,      /* I =168 */
(PID.TID 0000.0001)                 2.647791839299727E+05,      /* I =169 */
(PID.TID 0000.0001)                 2.735321911346108E+05,      /* I =170 */
(PID.TID 0000.0001)                 2.810065951609633E+05,      /* I =171 */
(PID.TID 0000.0001)                 2.872689479506990E+05,      /* I =172 */
(PID.TID 0000.0001)                 2.923599955312932E+05,      /* I =173 */
(PID.TID 0000.0001)                 2.963038832565530E+05,      /* I =174 */
(PID.TID 0000.0001)                 2.991142470004740E+05,      /* I =175 */
(PID.TID 0000.0001)                 3.007982711627968E+05,      /* I =176 */
(PID.TID 0000.0001)                 3.013593857228136E+05,      /* I =177 */
(PID.TID 0000.0001)                 3.007982711627968E+05,      /* I =178 */
(PID.TID 0000.0001)                 2.991142470004740E+05,      /* I =179 */
(PID.TID 0000.0001)                 2.963038832565530E+05,      /* I =180 */
(PID.TID 0000.0001)                 2.923599955312932E+05,      /* I =181 */
(PID.TID 0000.0001)                 2.872689479506990E+05,      /* I =182 */
(PID.TID 0000.0001)                 2.810065951609633E+05,      /* I =183 */
(PID.TID 0000.0001)                 2.735321911346108E+05,      /* I =184 */
(PID.TID 0000.0001)                 2.647791839299727E+05,      /* I =185 */
(PID.TID 0000.0001)                 2.546408290696998E+05,      /* I =186 */
(PID.TID 0000.0001)                 2.429464709770498E+05,      /* I =187 */
(PID.TID 0000.0001)                 2.294195678257306E+05,      /* I =188 */
(PID.TID 0000.0001)                 2.135964483342134E+05,      /* I =189 */
(PID.TID 0000.0001)                 1.946503699269892E+05,      /* I =190 */
(PID.TID 0000.0001)                 1.709574999026267E+05,      /* I =191 */
(PID.TID 0000.0001)                 1.391343389937106E+05       /* I =192 */
(PID.TID 0000.0001)     ;
(PID.TID 0000.0001) dxC =  /* dxC(1,:,1,:) ( units: m ) */
(PID.TID 0000.0001)                 1.135373000692312E+05,      /* J =  1 */
(PID.TID 0000.0001)                 1.549545757850771E+05,      /* J =  2 */
(PID.TID 0000.0001)                 1.829777599966776E+05,      /* J =  3 */
(PID.TID 0000.0001)                 2.042717761866506E+05,      /* J =  4 */
(PID.TID 0000.0001)                 2.216367828252819E+05,      /* J =  5 */
(PID.TID 0000.0001)                 2.363029564123586E+05,      /* J =  6 */
(PID.TID 0000.0001)                 2.489113743322025E+05,      /* J =  7 */
(PID.TID 0000.0001)                 2.598293319150326E+05,      /* J =  8 */
(PID.TID 0000.0001)                 2.692787333338535E+05,      /* J =  9 */
(PID.TID 0000.0001)                 2.773972106720365E+05,      /* J = 10 */
(PID.TID 0000.0001)                 2.842706922224558E+05,      /* J = 11 */
(PID.TID 0000.0001)                 2.899523122489404E+05,      /* J = 12 */
(PID.TID 0000.0001)                 2.944741346384699E+05,      /* J = 13 */
(PID.TID 0000.0001)                 2.978547649292580E+05,      /* J = 14 */
(PID.TID 0000.0001)                 3.001044073506459E+05,      /* J = 15 */
(PID.TID 0000.0001)     2 @  3.012281885409289E+05,             /* J = 16: 17 */
(PID.TID 0000.0001)                 3.001044073506459E+05,      /* J = 18 */
(PID.TID 0000.0001)                 2.978547649292580E+05,      /* J = 19 */
(PID.TID 0000.0001)                 2.944741346384699E+05,      /* J = 20 */
(PID.TID 0000.0001)                 2.899523122489404E+05,      /* J = 21 */
(PID.TID 0000.0001)                 2.842706922224558E+05,      /* J = 22 */
(PID.TID 0000.0001)                 2.773972106720365E+05,      /* J = 23 */
(PID.TID 0000.0001)                 2.692787333338535E+05,      /* J = 24 */
(PID.TID 0000.0001)                 2.598293319150326E+05,      /* J = 25 */
(PID.TID 0000.0001)                 2.489113743322025E+05,      /* J = 26 */
(PID.TID 0000.0001)                 2.363029564123586E+05,      /* J = 27 */
(PID.TID 0000.0001)                 2.216367828252819E+05,      /* J = 28 */
(PID.TID 0000.0001)                 2.042717761866506E+05,      /* J = 29 */
(PID.TID 0000.0001)                 1.829777599966776E+05,      /* J = 30 */
(PID.TID 0000.0001)                 1.549545757850771E+05,      /* J = 31 */
(PID.TID 0000.0001)                 1.135373000692312E+05       /* J = 32 */
(PID.TID 0000.0001)     ;
(PID.TID 0000.0001) dyC =  /* dyC(:,1,:,1) ( units: m ) */
(PID.TID 0000.0001)                 1.135373000692312E+05,      /* I =  1 */
(PID.TID 0000.0001)                 1.549545757850771E+05,      /* I =  2 */
(PID.TID 0000.0001)                 1.829777599966776E+05,      /* I =  3 */
(PID.TID 0000.0001)                 2.042717761866506E+05,      /* I =  4 */
(PID.TID 0000.0001)                 2.216367828252819E+05,      /* I =  5 */
(PID.TID 0000.0001)                 2.363029564123586E+05,      /* I =  6 */
(PID.TID 0000.0001)                 2.489113743322025E+05,      /* I =  7 */
(PID.TID 0000.0001)                 2.598293319150326E+05,      /* I =  8 */
(PID.TID 0000.0001)                 2.692787333338535E+05,      /* I =  9 */
(PID.TID 0000.0001)                 2.773972106720365E+05,      /* I = 10 */
(PID.TID 0000.0001)                 2.842706922224558E+05,      /* I = 11 */
(PID.TID 0000.0001)                 2.899523122489404E+05,      /* I = 12 */
(PID.TID 0000.0001)                 2.944741346384699E+05,      /* I = 13 */
(PID.TID 0000.0001)                 2.978547649292580E+05,      /* I = 14 */
(PID.TID 0000.0001)                 3.001044073506459E+05,      /* I = 15 */
(PID.TID 0000.0001)     2 @  3.012281885409289E+05,             /* I = 16: 17 */
(PID.TID 0000.0001)                 3.001044073506459E+05,      /* I = 18 */
(PID.TID 0000.0001)                 2.978547649292580E+05,      /* I = 19 */
(PID.TID 0000.0001)                 2.944741346384699E+05,      /* I = 20 */
(PID.TID 0000.0001)                 2.899523122489404E+05,      /* I = 21 */
(PID.TID 0000.0001)                 2.842706922224558E+05,      /* I = 22 */
(PID.TID 0000.0001)                 2.773972106720365E+05,      /* I = 23 */
(PID.TID 0000.0001)                 2.692787333338535E+05,      /* I = 24 */
(PID.TID 0000.0001)                 2.598293319150326E+05,      /* I = 25 */
(PID.TID 0000.0001)                 2.489113743322025E+05,      /* I = 26 */
(PID.TID 0000.0001)                 2.363029564123586E+05,      /* I = 27 */
(PID.TID 0000.0001)                 2.216367828252819E+05,      /* I = 28 */
(PID.TID 0000.0001)                 2.042717761866506E+05,      /* I = 29 */
(PID.TID 0000.0001)                 1.829777599966776E+05,      /* I = 30 */
(PID.TID 0000.0001)                 1.549545757850771E+05,      /* I = 31 */
(PID.TID 0000.0001)     2 @  1.135373000692312E+05,             /* I = 32: 33 */
(PID.TID 0000.0001)                 1.549545757850771E+05,      /* I = 34 */
(PID.TID 0000.0001)                 1.829777599966776E+05,      /* I = 35 */
(PID.TID 0000.0001)                 2.042717761866506E+05,      /* I = 36 */
(PID.TID 0000.0001)                 2.216367828252819E+05,      /* I = 37 */
(PID.TID 0000.0001)                 2.363029564123586E+05,      /* I = 38 */
(PID.TID 0000.0001)                 2.489113743322025E+05,      /* I = 39 */
(PID.TID 0000.0001)                 2.598293319150326E+05,      /* I = 40 */
(PID.TID 0000.0001)                 2.692787333338535E+05,      /* I = 41 */
(PID.TID 0000.0001)                 2.773972106720365E+05,      /* I = 42 */
(PID.TID 0000.0001)                 2.842706922224558E+05,      /* I = 43 */
(PID.TID 0000.0001)                 2.899523122489404E+05,      /* I = 44 */
(PID.TID 0000.0001)                 2.944741346384699E+05,      /* I = 45 */
(PID.TID 0000.0001)                 2.978547649292580E+05,      /* I = 46 */
(PID.TID 0000.0001)                 3.001044073506459E+05,      /* I = 47 */
(PID.TID 0000.0001)     2 @  3.012281885409289E+05,             /* I = 48: 49 */
(PID.TID 0000.0001)                 3.001044073506459E+05,      /* I = 50 */
(PID.TID 0000.0001)                 2.978547649292580E+05,      /* I = 51 */
(PID.TID 0000.0001)                 2.944741346384699E+05,      /* I = 52 */
(PID.TID 0000.0001)                 2.899523122489404E+05,      /* I = 53 */
(PID.TID 0000.0001)                 2.842706922224558E+05,      /* I = 54 */
(PID.TID 0000.0001)                 2.773972106720365E+05,      /* I = 55 */
(PID.TID 0000.0001)                 2.692787333338535E+05,      /* I = 56 */
(PID.TID 0000.0001)                 2.598293319150326E+05,      /* I = 57 */
(PID.TID 0000.0001)                 2.489113743322025E+05,      /* I = 58 */
(PID.TID 0000.0001)                 2.363029564123586E+05,      /* I = 59 */
(PID.TID 0000.0001)                 2.216367828252819E+05,      /* I = 60 */
(PID.TID 0000.0001)                 2.042717761866506E+05,      /* I = 61 */
(PID.TID 0000.0001)                 1.829777599966776E+05,      /* I = 62 */
(PID.TID 0000.0001)                 1.549545757850771E+05,      /* I = 63 */
(PID.TID 0000.0001)     2 @  1.135373000692312E+05,             /* I = 64: 65 */
(PID.TID 0000.0001)                 1.549545757850771E+05,      /* I = 66 */
(PID.TID 0000.0001)                 1.829777599966776E+05,      /* I = 67 */
(PID.TID 0000.0001)                 2.042717761866506E+05,      /* I = 68 */
(PID.TID 0000.0001)                 2.216367828252819E+05,      /* I = 69 */
(PID.TID 0000.0001)                 2.363029564123586E+05,      /* I = 70 */
(PID.TID 0000.0001)                 2.489113743322025E+05,      /* I = 71 */
(PID.TID 0000.0001)                 2.598293319150326E+05,      /* I = 72 */
(PID.TID 0000.0001)                 2.692787333338535E+05,      /* I = 73 */
(PID.TID 0000.0001)                 2.773972106720365E+05,      /* I = 74 */
(PID.TID 0000.0001)                 2.842706922224558E+05,      /* I = 75 */
(PID.TID 0000.0001)                 2.899523122489404E+05,      /* I = 76 */
(PID.TID 0000.0001)                 2.944741346384699E+05,      /* I = 77 */
(PID.TID 0000.0001)                 2.978547649292580E+05,      /* I = 78 */
(PID.TID 0000.0001)                 3.001044073506459E+05,      /* I = 79 */
(PID.TID 0000.0001)     2 @  3.012281885409289E+05,             /* I = 80: 81 */
(PID.TID 0000.0001)                 3.001044073506459E+05,      /* I = 82 */
(PID.TID 0000.0001)                 2.978547649292580E+05,      /* I = 83 */
(PID.TID 0000.0001)                 2.944741346384699E+05,      /* I = 84 */
(PID.TID 0000.0001)                 2.899523122489404E+05,      /* I = 85 */
(PID.TID 0000.0001)                 2.842706922224558E+05,      /* I = 86 */
(PID.TID 0000.0001)                 2.773972106720365E+05,      /* I = 87 */
(PID.TID 0000.0001)                 2.692787333338535E+05,      /* I = 88 */
(PID.TID 0000.0001)                 2.598293319150326E+05,      /* I = 89 */
(PID.TID 0000.0001)                 2.489113743322025E+05,      /* I = 90 */
(PID.TID 0000.0001)                 2.363029564123586E+05,      /* I = 91 */
(PID.TID 0000.0001)                 2.216367828252819E+05,      /* I = 92 */
(PID.TID 0000.0001)                 2.042717761866506E+05,      /* I = 93 */
(PID.TID 0000.0001)                 1.829777599966776E+05,      /* I = 94 */
(PID.TID 0000.0001)                 1.549545757850771E+05,      /* I = 95 */
(PID.TID 0000.0001)     2 @  1.135373000692312E+05,             /* I = 96: 97 */
(PID.TID 0000.0001)                 1.549545757850771E+05,      /* I = 98 */
(PID.TID 0000.0001)                 1.829777599966776E+05,      /* I = 99 */
(PID.TID 0000.0001)                 2.042717761866506E+05,      /* I =100 */
(PID.TID 0000.0001)                 2.216367828252819E+05,      /* I =101 */
(PID.TID 0000.0001)                 2.363029564123586E+05,      /* I =102 */
(PID.TID 0000.0001)                 2.489113743322025E+05,      /* I =103 */
(PID.TID 0000.0001)                 2.598293319150326E+05,      /* I =104 */
(PID.TID 0000.0001)                 2.692787333338535E+05,      /* I =105 */
(PID.TID 0000.0001)                 2.773972106720365E+05,      /* I =106 */
(PID.TID 0000.0001)                 2.842706922224558E+05,      /* I =107 */
(PID.TID 0000.0001)                 2.899523122489404E+05,      /* I =108 */
(PID.TID 0000.0001)                 2.944741346384699E+05,      /* I =109 */
(PID.TID 0000.0001)                 2.978547649292580E+05,      /* I =110 */
(PID.TID 0000.0001)                 3.001044073506459E+05,      /* I =111 */
(PID.TID 0000.0001)     2 @  3.012281885409289E+05,             /* I =112:113 */
(PID.TID 0000.0001)                 3.001044073506459E+05,      /* I =114 */
(PID.TID 0000.0001)                 2.978547649292580E+05,      /* I =115 */
(PID.TID 0000.0001)                 2.944741346384699E+05,      /* I =116 */
(PID.TID 0000.0001)                 2.899523122489404E+05,      /* I =117 */
(PID.TID 0000.0001)                 2.842706922224558E+05,      /* I =118 */
(PID.TID 0000.0001)                 2.773972106720365E+05,      /* I =119 */
(PID.TID 0000.0001)                 2.692787333338535E+05,      /* I =120 */
(PID.TID 0000.0001)                 2.598293319150326E+05,      /* I =121 */
(PID.TID 0000.0001)                 2.489113743322025E+05,      /* I =122 */
(PID.TID 0000.0001)                 2.363029564123586E+05,      /* I =123 */
(PID.TID 0000.0001)                 2.216367828252819E+05,      /* I =124 */
(PID.TID 0000.0001)                 2.042717761866506E+05,      /* I =125 */
(PID.TID 0000.0001)                 1.829777599966776E+05,      /* I =126 */
(PID.TID 0000.0001)                 1.549545757850771E+05,      /* I =127 */
(PID.TID 0000.0001)     2 @  1.135373000692312E+05,             /* I =128:129 */
(PID.TID 0000.0001)                 1.549545757850771E+05,      /* I =130 */
(PID.TID 0000.0001)                 1.829777599966776E+05,      /* I =131 */
(PID.TID 0000.0001)                 2.042717761866506E+05,      /* I =132 */
(PID.TID 0000.0001)                 2.216367828252819E+05,      /* I =133 */
(PID.TID 0000.0001)                 2.363029564123586E+05,      /* I =134 */
(PID.TID 0000.0001)                 2.489113743322025E+05,      /* I =135 */
(PID.TID 0000.0001)                 2.598293319150326E+05,      /* I =136 */
(PID.TID 0000.0001)                 2.692787333338535E+05,      /* I =137 */
(PID.TID 0000.0001)                 2.773972106720365E+05,      /* I =138 */
(PID.TID 0000.0001)                 2.842706922224558E+05,      /* I =139 */
(PID.TID 0000.0001)                 2.899523122489404E+05,      /* I =140 */
(PID.TID 0000.0001)                 2.944741346384699E+05,      /* I =141 */
(PID.TID 0000.0001)                 2.978547649292580E+05,      /* I =142 */
(PID.TID 0000.0001)                 3.001044073506459E+05,      /* I =143 */
(PID.TID 0000.0001)     2 @  3.012281885409289E+05,             /* I =144:145 */
(PID.TID 0000.0001)                 3.001044073506459E+05,      /* I =146 */
(PID.TID 0000.0001)                 2.978547649292580E+05,      /* I =147 */
(PID.TID 0000.0001)                 2.944741346384699E+05,      /* I =148 */
(PID.TID 0000.0001)                 2.899523122489404E+05,      /* I =149 */
(PID.TID 0000.0001)                 2.842706922224558E+05,      /* I =150 */
(PID.TID 0000.0001)                 2.773972106720365E+05,      /* I =151 */
(PID.TID 0000.0001)                 2.692787333338535E+05,      /* I =152 */
(PID.TID 0000.0001)                 2.598293319150326E+05,      /* I =153 */
(PID.TID 0000.0001)                 2.489113743322025E+05,      /* I =154 */
(PID.TID 0000.0001)                 2.363029564123586E+05,      /* I =155 */
(PID.TID 0000.0001)                 2.216367828252819E+05,      /* I =156 */
(PID.TID 0000.0001)                 2.042717761866506E+05,      /* I =157 */
(PID.TID 0000.0001)                 1.829777599966776E+05,      /* I =158 */
(PID.TID 0000.0001)                 1.549545757850771E+05,      /* I =159 */
(PID.TID 0000.0001)     2 @  1.135373000692312E+05,             /* I =160:161 */
(PID.TID 0000.0001)                 1.549545757850771E+05,      /* I =162 */
(PID.TID 0000.0001)                 1.829777599966776E+05,      /* I =163 */
(PID.TID 0000.0001)                 2.042717761866506E+05,      /* I =164 */
(PID.TID 0000.0001)                 2.216367828252819E+05,      /* I =165 */
(PID.TID 0000.0001)                 2.363029564123586E+05,      /* I =166 */
(PID.TID 0000.0001)                 2.489113743322025E+05,      /* I =167 */
(PID.TID 0000.0001)                 2.598293319150326E+05,      /* I =168 */
(PID.TID 0000.0001)                 2.692787333338535E+05,      /* I =169 */
(PID.TID 0000.0001)                 2.773972106720365E+05,      /* I =170 */
(PID.TID 0000.0001)                 2.842706922224558E+05,      /* I =171 */
(PID.TID 0000.0001)                 2.899523122489404E+05,      /* I =172 */
(PID.TID 0000.0001)                 2.944741346384699E+05,      /* I =173 */
(PID.TID 0000.0001)                 2.978547649292580E+05,      /* I =174 */
(PID.TID 0000.0001)                 3.001044073506459E+05,      /* I =175 */
(PID.TID 0000.0001)     2 @  3.012281885409289E+05,             /* I =176:177 */
(PID.TID 0000.0001)                 3.001044073506459E+05,      /* I =178 */
(PID.TID 0000.0001)                 2.978547649292580E+05,      /* I =179 */
(PID.TID 0000.0001)                 2.944741346384699E+05,      /* I =180 */
(PID.TID 0000.0001)                 2.899523122489404E+05,      /* I =181 */
(PID.TID 0000.0001)                 2.842706922224558E+05,      /* I =182 */
(PID.TID 0000.0001)                 2.773972106720365E+05,      /* I =183 */
(PID.TID 0000.0001)                 2.692787333338535E+05,      /* I =184 */
(PID.TID 0000.0001)                 2.598293319150326E+05,      /* I =185 */
(PID.TID 0000.0001)                 2.489113743322025E+05,      /* I =186 */
(PID.TID 0000.0001)                 2.363029564123586E+05,      /* I =187 */
(PID.TID 0000.0001)                 2.216367828252819E+05,      /* I =188 */
(PID.TID 0000.0001)                 2.042717761866506E+05,      /* I =189 */
(PID.TID 0000.0001)                 1.829777599966776E+05,      /* I =190 */
(PID.TID 0000.0001)                 1.549545757850771E+05,      /* I =191 */
(PID.TID 0000.0001)                 1.135373000692312E+05       /* I =192 */
(PID.TID 0000.0001)     ;
(PID.TID 0000.0001) dyC =  /* dyC(1,:,1,:) ( units: m ) */
(PID.TID 0000.0001)                 1.135373000692312E+05,      /* J =  1 */
(PID.TID 0000.0001)                 1.391343389937106E+05,      /* J =  2 */
(PID.TID 0000.0001)                 1.709574999026267E+05,      /* J =  3 */
(PID.TID 0000.0001)                 1.946503699269892E+05,      /* J =  4 */
(PID.TID 0000.0001)                 2.135964483342134E+05,      /* J =  5 */
(PID.TID 0000.0001)                 2.294195678257306E+05,      /* J =  6 */
(PID.TID 0000.0001)                 2.429464709770498E+05,      /* J =  7 */
(PID.TID 0000.0001)                 2.546408290696998E+05,      /* J =  8 */
(PID.TID 0000.0001)                 2.647791839299727E+05,      /* J =  9 */
(PID.TID 0000.0001)                 2.735321911346108E+05,      /* J = 10 */
(PID.TID 0000.0001)                 2.810065951609633E+05,      /* J = 11 */
(PID.TID 0000.0001)                 2.872689479506990E+05,      /* J = 12 */
(PID.TID 0000.0001)                 2.923599955312932E+05,      /* J = 13 */
(PID.TID 0000.0001)                 2.963038832565530E+05,      /* J = 14 */
(PID.TID 0000.0001)                 2.991142470004740E+05,      /* J = 15 */
(PID.TID 0000.0001)                 3.007982711627968E+05,      /* J = 16 */
(PID.TID 0000.0001)                 3.013593857228136E+05,      /* J = 17 */
(PID.TID 0000.0001)                 3.007982711627968E+05,      /* J = 18 */
(PID.TID 0000.0001)                 2.991142470004740E+05,      /* J = 19 */
(PID.TID 0000.0001)                 2.963038832565530E+05,      /* J = 20 */
(PID.TID 0000.0001)                 2.923599955312932E+05,      /* J = 21 */
(PID.TID 0000.0001)                 2.872689479506990E+05,      /* J = 22 */
(PID.TID 0000.0001)                 2.810065951609633E+05,      /* J = 23 */
(PID.TID 0000.0001)                 2.735321911346108E+05,      /* J = 24 */
(PID.TID 0000.0001)                 2.647791839299727E+05,      /* J = 25 */
(PID.TID 0000.0001)                 2.546408290696998E+05,      /* J = 26 */
(PID.TID 0000.0001)                 2.429464709770498E+05,      /* J = 27 */
(PID.TID 0000.0001)                 2.294195678257306E+05,      /* J = 28 */
(PID.TID 0000.0001)                 2.135964483342134E+05,      /* J = 29 */
(PID.TID 0000.0001)                 1.946503699269892E+05,      /* J = 30 */
(PID.TID 0000.0001)                 1.709574999026267E+05,      /* J = 31 */
(PID.TID 0000.0001)                 1.391343389937106E+05       /* J = 32 */
(PID.TID 0000.0001)     ;
(PID.TID 0000.0001) dxV =  /* dxV(:,1,:,1) ( units: m ) */
(PID.TID 0000.0001)                 8.015229982413632E+04,      /* I =  1 */
(PID.TID 0000.0001)                 1.333130744933864E+05,      /* I =  2 */
(PID.TID 0000.0001)                 1.691744868129062E+05,      /* I =  3 */
(PID.TID 0000.0001)                 1.937548202849060E+05,      /* I =  4 */
(PID.TID 0000.0001)                 2.130490056267208E+05,      /* I =  5 */
(PID.TID 0000.0001)                 2.290479919481738E+05,      /* I =  6 */
(PID.TID 0000.0001)                 2.426774358027004E+05,      /* I =  7 */
(PID.TID 0000.0001)                 2.544372984215561E+05,      /* I =  8 */
(PID.TID 0000.0001)                 2.646201463834826E+05,      /* I =  9 */
(PID.TID 0000.0001)                 2.734046499619031E+05,      /* I = 10 */
(PID.TID 0000.0001)                 2.809019351693761E+05,      /* I = 11 */
(PID.TID 0000.0001)                 2.871811105274442E+05,      /* I = 12 */
(PID.TID 0000.0001)                 2.922844849381675E+05,      /* I = 13 */
(PID.TID 0000.0001)                 2.962371870847826E+05,      /* I = 14 */
(PID.TID 0000.0001)                 2.990534755671296E+05,      /* I = 15 */
(PID.TID 0000.0001)                 3.007409169495504E+05,      /* I = 16 */
(PID.TID 0000.0001)                 3.013031486919771E+05,      /* I = 17 */
(PID.TID 0000.0001)                 3.007409169495504E+05,      /* I = 18 */
(PID.TID 0000.0001)                 2.990534755671296E+05,      /* I = 19 */
(PID.TID 0000.0001)                 2.962371870847826E+05,      /* I = 20 */
(PID.TID 0000.0001)                 2.922844849381675E+05,      /* I = 21 */
(PID.TID 0000.0001)                 2.871811105274442E+05,      /* I = 22 */
(PID.TID 0000.0001)                 2.809019351693761E+05,      /* I = 23 */
(PID.TID 0000.0001)                 2.734046499619031E+05,      /* I = 24 */
(PID.TID 0000.0001)                 2.646201463834826E+05,      /* I = 25 */
(PID.TID 0000.0001)                 2.544372984215561E+05,      /* I = 26 */
(PID.TID 0000.0001)                 2.426774358027004E+05,      /* I = 27 */
(PID.TID 0000.0001)                 2.290479919481738E+05,      /* I = 28 */
(PID.TID 0000.0001)                 2.130490056267208E+05,      /* I = 29 */
(PID.TID 0000.0001)                 1.937548202849060E+05,      /* I = 30 */
(PID.TID 0000.0001)                 1.691744868129062E+05,      /* I = 31 */
(PID.TID 0000.0001)                 1.333130744933864E+05,      /* I = 32 */
(PID.TID 0000.0001)                 8.015229982413632E+04,      /* I = 33 */
(PID.TID 0000.0001)                 1.333130744933864E+05,      /* I = 34 */
(PID.TID 0000.0001)                 1.691744868129062E+05,      /* I = 35 */
(PID.TID 0000.0001)                 1.937548202849060E+05,      /* I = 36 */
(PID.TID 0000.0001)                 2.130490056267208E+05,      /* I = 37 */
(PID.TID 0000.0001)                 2.290479919481738E+05,      /* I = 38 */
(PID.TID 0000.0001)                 2.426774358027004E+05,      /* I = 39 */
(PID.TID 0000.0001)                 2.544372984215561E+05,      /* I = 40 */
(PID.TID 0000.0001)                 2.646201463834826E+05,      /* I = 41 */
(PID.TID 0000.0001)                 2.734046499619031E+05,      /* I = 42 */
(PID.TID 0000.0001)                 2.809019351693761E+05,      /* I = 43 */
(PID.TID 0000.0001)                 2.871811105274442E+05,      /* I = 44 */
(PID.TID 0000.0001)                 2.922844849381675E+05,      /* I = 45 */
(PID.TID 0000.0001)                 2.962371870847826E+05,      /* I = 46 */
(PID.TID 0000.0001)                 2.990534755671296E+05,      /* I = 47 */
(PID.TID 0000.0001)                 3.007409169495504E+05,      /* I = 48 */
(PID.TID 0000.0001)                 3.013031486919771E+05,      /* I = 49 */
(PID.TID 0000.0001)                 3.007409169495504E+05,      /* I = 50 */
(PID.TID 0000.0001)                 2.990534755671296E+05,      /* I = 51 */
(PID.TID 0000.0001)                 2.962371870847826E+05,      /* I = 52 */
(PID.TID 0000.0001)                 2.922844849381675E+05,      /* I = 53 */
(PID.TID 0000.0001)                 2.871811105274442E+05,      /* I = 54 */
(PID.TID 0000.0001)                 2.809019351693761E+05,      /* I = 55 */
(PID.TID 0000.0001)                 2.734046499619031E+05,      /* I = 56 */
(PID.TID 0000.0001)                 2.646201463834826E+05,      /* I = 57 */
(PID.TID 0000.0001)                 2.544372984215561E+05,      /* I = 58 */
(PID.TID 0000.0001)                 2.426774358027004E+05,      /* I = 59 */
(PID.TID 0000.0001)                 2.290479919481738E+05,      /* I = 60 */
(PID.TID 0000.0001)                 2.130490056267208E+05,      /* I = 61 */
(PID.TID 0000.0001)                 1.937548202849060E+05,      /* I = 62 */
(PID.TID 0000.0001)                 1.691744868129062E+05,      /* I = 63 */
(PID.TID 0000.0001)                 1.333130744933864E+05,      /* I = 64 */
(PID.TID 0000.0001)                 8.015229982413632E+04,      /* I = 65 */
(PID.TID 0000.0001)                 1.333130744933864E+05,      /* I = 66 */
(PID.TID 0000.0001)                 1.691744868129062E+05,      /* I = 67 */
(PID.TID 0000.0001)                 1.937548202849060E+05,      /* I = 68 */
(PID.TID 0000.0001)                 2.130490056267208E+05,      /* I = 69 */
(PID.TID 0000.0001)                 2.290479919481738E+05,      /* I = 70 */
(PID.TID 0000.0001)                 2.426774358027004E+05,      /* I = 71 */
(PID.TID 0000.0001)                 2.544372984215561E+05,      /* I = 72 */
(PID.TID 0000.0001)                 2.646201463834826E+05,      /* I = 73 */
(PID.TID 0000.0001)                 2.734046499619031E+05,      /* I = 74 */
(PID.TID 0000.0001)                 2.809019351693761E+05,      /* I = 75 */
(PID.TID 0000.0001)                 2.871811105274442E+05,      /* I = 76 */
(PID.TID 0000.0001)                 2.922844849381675E+05,      /* I = 77 */
(PID.TID 0000.0001)                 2.962371870847826E+05,      /* I = 78 */
(PID.TID 0000.0001)                 2.990534755671296E+05,      /* I = 79 */
(PID.TID 0000.0001)                 3.007409169495504E+05,      /* I = 80 */
(PID.TID 0000.0001)                 3.013031486919771E+05,      /* I = 81 */
(PID.TID 0000.0001)                 3.007409169495504E+05,      /* I = 82 */
(PID.TID 0000.0001)                 2.990534755671296E+05,      /* I = 83 */
(PID.TID 0000.0001)                 2.962371870847826E+05,      /* I = 84 */
(PID.TID 0000.0001)                 2.922844849381675E+05,      /* I = 85 */
(PID.TID 0000.0001)                 2.871811105274442E+05,      /* I = 86 */
(PID.TID 0000.0001)                 2.809019351693761E+05,      /* I = 87 */
(PID.TID 0000.0001)                 2.734046499619031E+05,      /* I = 88 */
(PID.TID 0000.0001)                 2.646201463834826E+05,      /* I = 89 */
(PID.TID 0000.0001)                 2.544372984215561E+05,      /* I = 90 */
(PID.TID 0000.0001)                 2.426774358027004E+05,      /* I = 91 */
(PID.TID 0000.0001)                 2.290479919481738E+05,      /* I = 92 */
(PID.TID 0000.0001)                 2.130490056267208E+05,      /* I = 93 */
(PID.TID 0000.0001)                 1.937548202849060E+05,      /* I = 94 */
(PID.TID 0000.0001)                 1.691744868129062E+05,      /* I = 95 */
(PID.TID 0000.0001)                 1.333130744933864E+05,      /* I = 96 */
(PID.TID 0000.0001)                 8.015229982413632E+04,      /* I = 97 */
(PID.TID 0000.0001)                 1.333130744933864E+05,      /* I = 98 */
(PID.TID 0000.0001)                 1.691744868129062E+05,      /* I = 99 */
(PID.TID 0000.0001)                 1.937548202849060E+05,      /* I =100 */
(PID.TID 0000.0001)                 2.130490056267208E+05,      /* I =101 */
(PID.TID 0000.0001)                 2.290479919481738E+05,      /* I =102 */
(PID.TID 0000.0001)                 2.426774358027004E+05,      /* I =103 */
(PID.TID 0000.0001)                 2.544372984215561E+05,      /* I =104 */
(PID.TID 0000.0001)                 2.646201463834826E+05,      /* I =105 */
(PID.TID 0000.0001)                 2.734046499619031E+05,      /* I =106 */
(PID.TID 0000.0001)                 2.809019351693761E+05,      /* I =107 */
(PID.TID 0000.0001)                 2.871811105274442E+05,      /* I =108 */
(PID.TID 0000.0001)                 2.922844849381675E+05,      /* I =109 */
(PID.TID 0000.0001)                 2.962371870847826E+05,      /* I =110 */
(PID.TID 0000.0001)                 2.990534755671296E+05,      /* I =111 */
(PID.TID 0000.0001)                 3.007409169495504E+05,      /* I =112 */
(PID.TID 0000.0001)                 3.013031486919771E+05,      /* I =113 */
(PID.TID 0000.0001)                 3.007409169495504E+05,      /* I =114 */
(PID.TID 0000.0001)                 2.990534755671296E+05,      /* I =115 */
(PID.TID 0000.0001)                 2.962371870847826E+05,      /* I =116 */
(PID.TID 0000.0001)                 2.922844849381675E+05,      /* I =117 */
(PID.TID 0000.0001)                 2.871811105274442E+05,      /* I =118 */
(PID.TID 0000.0001)                 2.809019351693761E+05,      /* I =119 */
(PID.TID 0000.0001)                 2.734046499619031E+05,      /* I =120 */
(PID.TID 0000.0001)                 2.646201463834826E+05,      /* I =121 */
(PID.TID 0000.0001)                 2.544372984215561E+05,      /* I =122 */
(PID.TID 0000.0001)                 2.426774358027004E+05,      /* I =123 */
(PID.TID 0000.0001)                 2.290479919481738E+05,      /* I =124 */
(PID.TID 0000.0001)                 2.130490056267208E+05,      /* I =125 */
(PID.TID 0000.0001)                 1.937548202849060E+05,      /* I =126 */
(PID.TID 0000.0001)                 1.691744868129062E+05,      /* I =127 */
(PID.TID 0000.0001)                 1.333130744933864E+05,      /* I =128 */
(PID.TID 0000.0001)                 8.015229982413632E+04,      /* I =129 */
(PID.TID 0000.0001)                 1.333130744933864E+05,      /* I =130 */
(PID.TID 0000.0001)                 1.691744868129062E+05,      /* I =131 */
(PID.TID 0000.0001)                 1.937548202849060E+05,      /* I =132 */
(PID.TID 0000.0001)                 2.130490056267208E+05,      /* I =133 */
(PID.TID 0000.0001)                 2.290479919481738E+05,      /* I =134 */
(PID.TID 0000.0001)                 2.426774358027004E+05,      /* I =135 */
(PID.TID 0000.0001)                 2.544372984215561E+05,      /* I =136 */
(PID.TID 0000.0001)                 2.646201463834826E+05,      /* I =137 */
(PID.TID 0000.0001)                 2.734046499619031E+05,      /* I =138 */
(PID.TID 0000.0001)                 2.809019351693761E+05,      /* I =139 */
(PID.TID 0000.0001)                 2.871811105274442E+05,      /* I =140 */
(PID.TID 0000.0001)                 2.922844849381675E+05,      /* I =141 */
(PID.TID 0000.0001)                 2.962371870847826E+05,      /* I =142 */
(PID.TID 0000.0001)                 2.990534755671296E+05,      /* I =143 */
(PID.TID 0000.0001)                 3.007409169495504E+05,      /* I =144 */
(PID.TID 0000.0001)                 3.013031486919771E+05,      /* I =145 */
(PID.TID 0000.0001)                 3.007409169495504E+05,      /* I =146 */
(PID.TID 0000.0001)                 2.990534755671296E+05,      /* I =147 */
(PID.TID 0000.0001)                 2.962371870847826E+05,      /* I =148 */
(PID.TID 0000.0001)                 2.922844849381675E+05,      /* I =149 */
(PID.TID 0000.0001)                 2.871811105274442E+05,      /* I =150 */
(PID.TID 0000.0001)                 2.809019351693761E+05,      /* I =151 */
(PID.TID 0000.0001)                 2.734046499619031E+05,      /* I =152 */
(PID.TID 0000.0001)                 2.646201463834826E+05,      /* I =153 */
(PID.TID 0000.0001)                 2.544372984215561E+05,      /* I =154 */
(PID.TID 0000.0001)                 2.426774358027004E+05,      /* I =155 */
(PID.TID 0000.0001)                 2.290479919481738E+05,      /* I =156 */
(PID.TID 0000.0001)                 2.130490056267208E+05,      /* I =157 */
(PID.TID 0000.0001)                 1.937548202849060E+05,      /* I =158 */
(PID.TID 0000.0001)                 1.691744868129062E+05,      /* I =159 */
(PID.TID 0000.0001)                 1.333130744933864E+05,      /* I =160 */
(PID.TID 0000.0001)                 8.015229982413632E+04,      /* I =161 */
(PID.TID 0000.0001)                 1.333130744933864E+05,      /* I =162 */
(PID.TID 0000.0001)                 1.691744868129062E+05,      /* I =163 */
(PID.TID 0000.0001)                 1.937548202849060E+05,      /* I =164 */
(PID.TID 0000.0001)                 2.130490056267208E+05,      /* I =165 */
(PID.TID 0000.0001)                 2.290479919481738E+05,      /* I =166 */
(PID.TID 0000.0001)                 2.426774358027004E+05,      /* I =167 */
(PID.TID 0000.0001)                 2.544372984215561E+05,      /* I =168 */
(PID.TID 0000.0001)                 2.646201463834826E+05,      /* I =169 */
(PID.TID 0000.0001)                 2.734046499619031E+05,      /* I =170 */
(PID.TID 0000.0001)                 2.809019351693761E+05,      /* I =171 */
(PID.TID 0000.0001)                 2.871811105274442E+05,      /* I =172 */
(PID.TID 0000.0001)                 2.922844849381675E+05,      /* I =173 */
(PID.TID 0000.0001)                 2.962371870847826E+05,      /* I =174 */
(PID.TID 0000.0001)                 2.990534755671296E+05,      /* I =175 */
(PID.TID 0000.0001)                 3.007409169495504E+05,      /* I =176 */
(PID.TID 0000.0001)                 3.013031486919771E+05,      /* I =177 */
(PID.TID 0000.0001)                 3.007409169495504E+05,      /* I =178 */
(PID.TID 0000.0001)                 2.990534755671296E+05,      /* I =179 */
(PID.TID 0000.0001)                 2.962371870847826E+05,      /* I =180 */
(PID.TID 0000.0001)                 2.922844849381675E+05,      /* I =181 */
(PID.TID 0000.0001)                 2.871811105274442E+05,      /* I =182 */
(PID.TID 0000.0001)                 2.809019351693761E+05,      /* I =183 */
(PID.TID 0000.0001)                 2.734046499619031E+05,      /* I =184 */
(PID.TID 0000.0001)                 2.646201463834826E+05,      /* I =185 */
(PID.TID 0000.0001)                 2.544372984215561E+05,      /* I =186 */
(PID.TID 0000.0001)                 2.426774358027004E+05,      /* I =187 */
(PID.TID 0000.0001)                 2.290479919481738E+05,      /* I =188 */
(PID.TID 0000.0001)                 2.130490056267208E+05,      /* I =189 */
(PID.TID 0000.0001)                 1.937548202849060E+05,      /* I =190 */
(PID.TID 0000.0001)                 1.691744868129062E+05,      /* I =191 */
(PID.TID 0000.0001)                 1.333130744933864E+05       /* I =192 */
(PID.TID 0000.0001)     ;
(PID.TID 0000.0001) dxV =  /* dxV(1,:,1,:) ( units: m ) */
(PID.TID 0000.0001)                 8.015229982413632E+04,      /* J =  1 */
(PID.TID 0000.0001)                 1.362652340208229E+05,      /* J =  2 */
(PID.TID 0000.0001)                 1.701080315742101E+05,      /* J =  3 */
(PID.TID 0000.0001)                 1.942331448101592E+05,      /* J =  4 */
(PID.TID 0000.0001)                 2.133486626971531E+05,      /* J =  5 */
(PID.TID 0000.0001)                 2.292584591272880E+05,      /* J =  6 */
(PID.TID 0000.0001)                 2.428369969078989E+05,      /* J =  7 */
(PID.TID 0000.0001)                 2.545652950875683E+05,      /* J =  8 */
(PID.TID 0000.0001)                 2.647274964828302E+05,      /* J =  9 */
(PID.TID 0000.0001)                 2.734980225206389E+05,      /* J = 10 */
(PID.TID 0000.0001)                 2.809856491525217E+05,      /* J = 11 */
(PID.TID 0000.0001)                 2.872580915202295E+05,      /* J = 12 */
(PID.TID 0000.0001)                 2.923567890694162E+05,      /* J = 13 */
(PID.TID 0000.0001)                 2.963063101754721E+05,      /* J = 14 */
(PID.TID 0000.0001)                 2.991205495886625E+05,      /* J = 15 */
(PID.TID 0000.0001)                 3.008068453676764E+05,      /* J = 16 */
(PID.TID 0000.0001)                 3.013686170436881E+05,      /* J = 17 */
(PID.TID 0000.0001)                 3.008068453676764E+05,      /* J = 18 */
(PID.TID 0000.0001)                 2.991205495886625E+05,      /* J = 19 */
(PID.TID 0000.0001)                 2.963063101754721E+05,      /* J = 20 */
(PID.TID 0000.0001)                 2.923567890694162E+05,      /* J = 21 */
(PID.TID 0000.0001)                 2.872580915202295E+05,      /* J = 22 */
(PID.TID 0000.0001)                 2.809856491525217E+05,      /* J = 23 */
(PID.TID 0000.0001)                 2.734980225206389E+05,      /* J = 24 */
(PID.TID 0000.0001)                 2.647274964828302E+05,      /* J = 25 */
(PID.TID 0000.0001)                 2.545652950875683E+05,      /* J = 26 */
(PID.TID 0000.0001)                 2.428369969078989E+05,      /* J = 27 */
(PID.TID 0000.0001)                 2.292584591272880E+05,      /* J = 28 */
(PID.TID 0000.0001)                 2.133486626971531E+05,      /* J = 29 */
(PID.TID 0000.0001)                 1.942331448101592E+05,      /* J = 30 */
(PID.TID 0000.0001)                 1.701080315742101E+05,      /* J = 31 */
(PID.TID 0000.0001)                 1.362652340208229E+05       /* J = 32 */
(PID.TID 0000.0001)     ;
(PID.TID 0000.0001) dyU =  /* dyU(:,1,:,1) ( units: m ) */
(PID.TID 0000.0001)                 8.015229982413632E+04,      /* I =  1 */
(PID.TID 0000.0001)                 1.362652340208229E+05,      /* I =  2 */
(PID.TID 0000.0001)                 1.701080315742101E+05,      /* I =  3 */
(PID.TID 0000.0001)                 1.942331448101592E+05,      /* I =  4 */
(PID.TID 0000.0001)                 2.133486626971531E+05,      /* I =  5 */
(PID.TID 0000.0001)                 2.292584591272880E+05,      /* I =  6 */
(PID.TID 0000.0001)                 2.428369969078989E+05,      /* I =  7 */
(PID.TID 0000.0001)                 2.545652950875683E+05,      /* I =  8 */
(PID.TID 0000.0001)                 2.647274964828302E+05,      /* I =  9 */
(PID.TID 0000.0001)                 2.734980225206389E+05,      /* I = 10 */
(PID.TID 0000.0001)                 2.809856491525217E+05,      /* I = 11 */
(PID.TID 0000.0001)                 2.872580915202295E+05,      /* I = 12 */
(PID.TID 0000.0001)                 2.923567890694162E+05,      /* I = 13 */
(PID.TID 0000.0001)                 2.963063101754721E+05,      /* I = 14 */
(PID.TID 0000.0001)                 2.991205495886625E+05,      /* I = 15 */
(PID.TID 0000.0001)                 3.008068453676764E+05,      /* I = 16 */
(PID.TID 0000.0001)                 3.013686170436881E+05,      /* I = 17 */
(PID.TID 0000.0001)                 3.008068453676764E+05,      /* I = 18 */
(PID.TID 0000.0001)                 2.991205495886625E+05,      /* I = 19 */
(PID.TID 0000.0001)                 2.963063101754721E+05,      /* I = 20 */
(PID.TID 0000.0001)                 2.923567890694162E+05,      /* I = 21 */
(PID.TID 0000.0001)                 2.872580915202295E+05,      /* I = 22 */
(PID.TID 0000.0001)                 2.809856491525217E+05,      /* I = 23 */
(PID.TID 0000.0001)                 2.734980225206389E+05,      /* I = 24 */
(PID.TID 0000.0001)                 2.647274964828302E+05,      /* I = 25 */
(PID.TID 0000.0001)                 2.545652950875683E+05,      /* I = 26 */
(PID.TID 0000.0001)                 2.428369969078989E+05,      /* I = 27 */
(PID.TID 0000.0001)                 2.292584591272880E+05,      /* I = 28 */
(PID.TID 0000.0001)                 2.133486626971531E+05,      /* I = 29 */
(PID.TID 0000.0001)                 1.942331448101592E+05,      /* I = 30 */
(PID.TID 0000.0001)                 1.701080315742101E+05,      /* I = 31 */
(PID.TID 0000.0001)                 1.362652340208229E+05,      /* I = 32 */
(PID.TID 0000.0001)                 8.015229982413632E+04,      /* I = 33 */
(PID.TID 0000.0001)                 1.362652340208229E+05,      /* I = 34 */
(PID.TID 0000.0001)                 1.701080315742101E+05,      /* I = 35 */
(PID.TID 0000.0001)                 1.942331448101592E+05,      /* I = 36 */
(PID.TID 0000.0001)                 2.133486626971531E+05,      /* I = 37 */
(PID.TID 0000.0001)                 2.292584591272880E+05,      /* I = 38 */
(PID.TID 0000.0001)                 2.428369969078989E+05,      /* I = 39 */
(PID.TID 0000.0001)                 2.545652950875683E+05,      /* I = 40 */
(PID.TID 0000.0001)                 2.647274964828302E+05,      /* I = 41 */
(PID.TID 0000.0001)                 2.734980225206389E+05,      /* I = 42 */
(PID.TID 0000.0001)                 2.809856491525217E+05,      /* I = 43 */
(PID.TID 0000.0001)                 2.872580915202295E+05,      /* I = 44 */
(PID.TID 0000.0001)                 2.923567890694162E+05,      /* I = 45 */
(PID.TID 0000.0001)                 2.963063101754721E+05,      /* I = 46 */
(PID.TID 0000.0001)                 2.991205495886625E+05,      /* I = 47 */
(PID.TID 0000.0001)                 3.008068453676764E+05,      /* I = 48 */
(PID.TID 0000.0001)                 3.013686170436881E+05,      /* I = 49 */
(PID.TID 0000.0001)                 3.008068453676764E+05,      /* I = 50 */
(PID.TID 0000.0001)                 2.991205495886625E+05,      /* I = 51 */
(PID.TID 0000.0001)                 2.963063101754721E+05,      /* I = 52 */
(PID.TID 0000.0001)                 2.923567890694162E+05,      /* I = 53 */
(PID.TID 0000.0001)                 2.872580915202295E+05,      /* I = 54 */
(PID.TID 0000.0001)                 2.809856491525217E+05,      /* I = 55 */
(PID.TID 0000.0001)                 2.734980225206389E+05,      /* I = 56 */
(PID.TID 0000.0001)                 2.647274964828302E+05,      /* I = 57 */
(PID.TID 0000.0001)                 2.545652950875683E+05,      /* I = 58 */
(PID.TID 0000.0001)                 2.428369969078989E+05,      /* I = 59 */
(PID.TID 0000.0001)                 2.292584591272880E+05,      /* I = 60 */
(PID.TID 0000.0001)                 2.133486626971531E+05,      /* I = 61 */
(PID.TID 0000.0001)                 1.942331448101592E+05,      /* I = 62 */
(PID.TID 0000.0001)                 1.701080315742101E+05,      /* I = 63 */
(PID.TID 0000.0001)                 1.362652340208229E+05,      /* I = 64 */
(PID.TID 0000.0001)                 8.015229982413632E+04,      /* I = 65 */
(PID.TID 0000.0001)                 1.362652340208229E+05,      /* I = 66 */
(PID.TID 0000.0001)                 1.701080315742101E+05,      /* I = 67 */
(PID.TID 0000.0001)                 1.942331448101592E+05,      /* I = 68 */
(PID.TID 0000.0001)                 2.133486626971531E+05,      /* I = 69 */
(PID.TID 0000.0001)                 2.292584591272880E+05,      /* I = 70 */
(PID.TID 0000.0001)                 2.428369969078989E+05,      /* I = 71 */
(PID.TID 0000.0001)                 2.545652950875683E+05,      /* I = 72 */
(PID.TID 0000.0001)                 2.647274964828302E+05,      /* I = 73 */
(PID.TID 0000.0001)                 2.734980225206389E+05,      /* I = 74 */
(PID.TID 0000.0001)                 2.809856491525217E+05,      /* I = 75 */
(PID.TID 0000.0001)                 2.872580915202295E+05,      /* I = 76 */
(PID.TID 0000.0001)                 2.923567890694162E+05,      /* I = 77 */
(PID.TID 0000.0001)                 2.963063101754721E+05,      /* I = 78 */
(PID.TID 0000.0001)                 2.991205495886625E+05,      /* I = 79 */
(PID.TID 0000.0001)                 3.008068453676764E+05,      /* I = 80 */
(PID.TID 0000.0001)                 3.013686170436881E+05,      /* I = 81 */
(PID.TID 0000.0001)                 3.008068453676764E+05,      /* I = 82 */
(PID.TID 0000.0001)                 2.991205495886625E+05,      /* I = 83 */
(PID.TID 0000.0001)                 2.963063101754721E+05,      /* I = 84 */
(PID.TID 0000.0001)                 2.923567890694162E+05,      /* I = 85 */
(PID.TID 0000.0001)                 2.872580915202295E+05,      /* I = 86 */
(PID.TID 0000.0001)                 2.809856491525217E+05,      /* I = 87 */
(PID.TID 0000.0001)                 2.734980225206389E+05,      /* I = 88 */
(PID.TID 0000.0001)                 2.647274964828302E+05,      /* I = 89 */
(PID.TID 0000.0001)                 2.545652950875683E+05,      /* I = 90 */
(PID.TID 0000.0001)                 2.428369969078989E+05,      /* I = 91 */
(PID.TID 0000.0001)                 2.292584591272880E+05,      /* I = 92 */
(PID.TID 0000.0001)                 2.133486626971531E+05,      /* I = 93 */
(PID.TID 0000.0001)                 1.942331448101592E+05,      /* I = 94 */
(PID.TID 0000.0001)                 1.701080315742101E+05,      /* I = 95 */
(PID.TID 0000.0001)                 1.362652340208229E+05,      /* I = 96 */
(PID.TID 0000.0001)                 8.015229982413632E+04,      /* I = 97 */
(PID.TID 0000.0001)                 1.362652340208229E+05,      /* I = 98 */
(PID.TID 0000.0001)                 1.701080315742101E+05,      /* I = 99 */
(PID.TID 0000.0001)                 1.942331448101592E+05,      /* I =100 */
(PID.TID 0000.0001)                 2.133486626971531E+05,      /* I =101 */
(PID.TID 0000.0001)                 2.292584591272880E+05,      /* I =102 */
(PID.TID 0000.0001)                 2.428369969078989E+05,      /* I =103 */
(PID.TID 0000.0001)                 2.545652950875683E+05,      /* I =104 */
(PID.TID 0000.0001)                 2.647274964828302E+05,      /* I =105 */
(PID.TID 0000.0001)                 2.734980225206389E+05,      /* I =106 */
(PID.TID 0000.0001)                 2.809856491525217E+05,      /* I =107 */
(PID.TID 0000.0001)                 2.872580915202295E+05,      /* I =108 */
(PID.TID 0000.0001)                 2.923567890694162E+05,      /* I =109 */
(PID.TID 0000.0001)                 2.963063101754721E+05,      /* I =110 */
(PID.TID 0000.0001)                 2.991205495886625E+05,      /* I =111 */
(PID.TID 0000.0001)                 3.008068453676764E+05,      /* I =112 */
(PID.TID 0000.0001)                 3.013686170436881E+05,      /* I =113 */
(PID.TID 0000.0001)                 3.008068453676764E+05,      /* I =114 */
(PID.TID 0000.0001)                 2.991205495886625E+05,      /* I =115 */
(PID.TID 0000.0001)                 2.963063101754721E+05,      /* I =116 */
(PID.TID 0000.0001)                 2.923567890694162E+05,      /* I =117 */
(PID.TID 0000.0001)                 2.872580915202295E+05,      /* I =118 */
(PID.TID 0000.0001)                 2.809856491525217E+05,      /* I =119 */
(PID.TID 0000.0001)                 2.734980225206389E+05,      /* I =120 */
(PID.TID 0000.0001)                 2.647274964828302E+05,      /* I =121 */
(PID.TID 0000.0001)                 2.545652950875683E+05,      /* I =122 */
(PID.TID 0000.0001)                 2.428369969078989E+05,      /* I =123 */
(PID.TID 0000.0001)                 2.292584591272880E+05,      /* I =124 */
(PID.TID 0000.0001)                 2.133486626971531E+05,      /* I =125 */
(PID.TID 0000.0001)                 1.942331448101592E+05,      /* I =126 */
(PID.TID 0000.0001)                 1.701080315742101E+05,      /* I =127 */
(PID.TID 0000.0001)                 1.362652340208229E+05,      /* I =128 */
(PID.TID 0000.0001)                 8.015229982413632E+04,      /* I =129 */
(PID.TID 0000.0001)                 1.362652340208229E+05,      /* I =130 */
(PID.TID 0000.0001)                 1.701080315742101E+05,      /* I =131 */
(PID.TID 0000.0001)                 1.942331448101592E+05,      /* I =132 */
(PID.TID 0000.0001)                 2.133486626971531E+05,      /* I =133 */
(PID.TID 0000.0001)                 2.292584591272880E+05,      /* I =134 */
(PID.TID 0000.0001)                 2.428369969078989E+05,      /* I =135 */
(PID.TID 0000.0001)                 2.545652950875683E+05,      /* I =136 */
(PID.TID 0000.0001)                 2.647274964828302E+05,      /* I =137 */
(PID.TID 0000.0001)                 2.734980225206389E+05,      /* I =138 */
(PID.TID 0000.0001)                 2.809856491525217E+05,      /* I =139 */
(PID.TID 0000.0001)                 2.872580915202295E+05,      /* I =140 */
(PID.TID 0000.0001)                 2.923567890694162E+05,      /* I =141 */
(PID.TID 0000.0001)                 2.963063101754721E+05,      /* I =142 */
(PID.TID 0000.0001)                 2.991205495886625E+05,      /* I =143 */
(PID.TID 0000.0001)                 3.008068453676764E+05,      /* I =144 */
(PID.TID 0000.0001)                 3.013686170436881E+05,      /* I =145 */
(PID.TID 0000.0001)                 3.008068453676764E+05,      /* I =146 */
(PID.TID 0000.0001)                 2.991205495886625E+05,      /* I =147 */
(PID.TID 0000.0001)                 2.963063101754721E+05,      /* I =148 */
(PID.TID 0000.0001)                 2.923567890694162E+05,      /* I =149 */
(PID.TID 0000.0001)                 2.872580915202295E+05,      /* I =150 */
(PID.TID 0000.0001)                 2.809856491525217E+05,      /* I =151 */
(PID.TID 0000.0001)                 2.734980225206389E+05,      /* I =152 */
(PID.TID 0000.0001)                 2.647274964828302E+05,      /* I =153 */
(PID.TID 0000.0001)                 2.545652950875683E+05,      /* I =154 */
(PID.TID 0000.0001)                 2.428369969078989E+05,      /* I =155 */
(PID.TID 0000.0001)                 2.292584591272880E+05,      /* I =156 */
(PID.TID 0000.0001)                 2.133486626971531E+05,      /* I =157 */
(PID.TID 0000.0001)                 1.942331448101592E+05,      /* I =158 */
(PID.TID 0000.0001)                 1.701080315742101E+05,      /* I =159 */
(PID.TID 0000.0001)                 1.362652340208229E+05,      /* I =160 */
(PID.TID 0000.0001)                 8.015229982413632E+04,      /* I =161 */
(PID.TID 0000.0001)                 1.362652340208229E+05,      /* I =162 */
(PID.TID 0000.0001)                 1.701080315742101E+05,      /* I =163 */
(PID.TID 0000.0001)                 1.942331448101592E+05,      /* I =164 */
(PID.TID 0000.0001)                 2.133486626971531E+05,      /* I =165 */
(PID.TID 0000.0001)                 2.292584591272880E+05,      /* I =166 */
(PID.TID 0000.0001)                 2.428369969078989E+05,      /* I =167 */
(PID.TID 0000.0001)                 2.545652950875683E+05,      /* I =168 */
(PID.TID 0000.0001)                 2.647274964828302E+05,      /* I =169 */
(PID.TID 0000.0001)                 2.734980225206389E+05,      /* I =170 */
(PID.TID 0000.0001)                 2.809856491525217E+05,      /* I =171 */
(PID.TID 0000.0001)                 2.872580915202295E+05,      /* I =172 */
(PID.TID 0000.0001)                 2.923567890694162E+05,      /* I =173 */
(PID.TID 0000.0001)                 2.963063101754721E+05,      /* I =174 */
(PID.TID 0000.0001)                 2.991205495886625E+05,      /* I =175 */
(PID.TID 0000.0001)                 3.008068453676764E+05,      /* I =176 */
(PID.TID 0000.0001)                 3.013686170436881E+05,      /* I =177 */
(PID.TID 0000.0001)                 3.008068453676764E+05,      /* I =178 */
(PID.TID 0000.0001)                 2.991205495886625E+05,      /* I =179 */
(PID.TID 0000.0001)                 2.963063101754721E+05,      /* I =180 */
(PID.TID 0000.0001)                 2.923567890694162E+05,      /* I =181 */
(PID.TID 0000.0001)                 2.872580915202295E+05,      /* I =182 */
(PID.TID 0000.0001)                 2.809856491525217E+05,      /* I =183 */
(PID.TID 0000.0001)                 2.734980225206389E+05,      /* I =184 */
(PID.TID 0000.0001)                 2.647274964828302E+05,      /* I =185 */
(PID.TID 0000.0001)                 2.545652950875683E+05,      /* I =186 */
(PID.TID 0000.0001)                 2.428369969078989E+05,      /* I =187 */
(PID.TID 0000.0001)                 2.292584591272880E+05,      /* I =188 */
(PID.TID 0000.0001)                 2.133486626971531E+05,      /* I =189 */
(PID.TID 0000.0001)                 1.942331448101592E+05,      /* I =190 */
(PID.TID 0000.0001)                 1.701080315742101E+05,      /* I =191 */
(PID.TID 0000.0001)                 1.362652340208229E+05       /* I =192 */
(PID.TID 0000.0001)     ;
(PID.TID 0000.0001) dyU =  /* dyU(1,:,1,:) ( units: m ) */
(PID.TID 0000.0001)                 8.015229982413632E+04,      /* J =  1 */
(PID.TID 0000.0001)                 1.333130744933864E+05,      /* J =  2 */
(PID.TID 0000.0001)                 1.691744868129062E+05,      /* J =  3 */
(PID.TID 0000.0001)                 1.937548202849060E+05,      /* J =  4 */
(PID.TID 0000.0001)                 2.130490056267208E+05,      /* J =  5 */
(PID.TID 0000.0001)                 2.290479919481738E+05,      /* J =  6 */
(PID.TID 0000.0001)                 2.426774358027004E+05,      /* J =  7 */
(PID.TID 0000.0001)                 2.544372984215561E+05,      /* J =  8 */
(PID.TID 0000.0001)                 2.646201463834826E+05,      /* J =  9 */
(PID.TID 0000.0001)                 2.734046499619031E+05,      /* J = 10 */
(PID.TID 0000.0001)                 2.809019351693761E+05,      /* J = 11 */
(PID.TID 0000.0001)                 2.871811105274442E+05,      /* J = 12 */
(PID.TID 0000.0001)                 2.922844849381675E+05,      /* J = 13 */
(PID.TID 0000.0001)                 2.962371870847826E+05,      /* J = 14 */
(PID.TID 0000.0001)                 2.990534755671296E+05,      /* J = 15 */
(PID.TID 0000.0001)                 3.007409169495504E+05,      /* J = 16 */
(PID.TID 0000.0001)                 3.013031486919771E+05,      /* J = 17 */
(PID.TID 0000.0001)                 3.007409169495504E+05,      /* J = 18 */
(PID.TID 0000.0001)                 2.990534755671296E+05,      /* J = 19 */
(PID.TID 0000.0001)                 2.962371870847826E+05,      /* J = 20 */
(PID.TID 0000.0001)                 2.922844849381675E+05,      /* J = 21 */
(PID.TID 0000.0001)                 2.871811105274442E+05,      /* J = 22 */
(PID.TID 0000.0001)                 2.809019351693761E+05,      /* J = 23 */
(PID.TID 0000.0001)                 2.734046499619031E+05,      /* J = 24 */
(PID.TID 0000.0001)                 2.646201463834826E+05,      /* J = 25 */
(PID.TID 0000.0001)                 2.544372984215561E+05,      /* J = 26 */
(PID.TID 0000.0001)                 2.426774358027004E+05,      /* J = 27 */
(PID.TID 0000.0001)                 2.290479919481738E+05,      /* J = 28 */
(PID.TID 0000.0001)                 2.130490056267208E+05,      /* J = 29 */
(PID.TID 0000.0001)                 1.937548202849060E+05,      /* J = 30 */
(PID.TID 0000.0001)                 1.691744868129062E+05,      /* J = 31 */
(PID.TID 0000.0001)                 1.333130744933864E+05       /* J = 32 */
(PID.TID 0000.0001)     ;
(PID.TID 0000.0001) rA  =  /* rA (:,1,:,1) ( units: m^2 ) */
(PID.TID 0000.0001)                 1.549786705672200E+10,      /* I =  1 */
(PID.TID 0000.0001)                 2.487202533723945E+10,      /* I =  2 */
(PID.TID 0000.0001)                 3.392265412140352E+10,      /* I =  3 */
(PID.TID 0000.0001)                 4.200427377313133E+10,      /* I =  4 */
(PID.TID 0000.0001)                 4.931323764668228E+10,      /* I =  5 */
(PID.TID 0000.0001)                 5.597545074899420E+10,      /* I =  6 */
(PID.TID 0000.0001)                 6.205603937791459E+10,      /* I =  7 */
(PID.TID 0000.0001)                 6.758299971934573E+10,      /* I =  8 */
(PID.TID 0000.0001)                 7.256155653843707E+10,      /* I =  9 */
(PID.TID 0000.0001)                 7.698291833687604E+10,      /* I = 10 */
(PID.TID 0000.0001)                 8.083005486272009E+10,      /* I = 11 */
(PID.TID 0000.0001)                 8.408183191745641E+10,      /* I = 12 */
(PID.TID 0000.0001)                 8.671615787312848E+10,      /* I = 13 */
(PID.TID 0000.0001)                 8.871245486529788E+10,      /* I = 14 */
(PID.TID 0000.0001)                 9.005359372079962E+10,      /* I = 15 */
(PID.TID 0000.0001)     2 @  9.072735712796770E+10,             /* I = 16: 17 */
(PID.TID 0000.0001)                 9.005359372079962E+10,      /* I = 18 */
(PID.TID 0000.0001)                 8.871245486529788E+10,      /* I = 19 */
(PID.TID 0000.0001)                 8.671615787312848E+10,      /* I = 20 */
(PID.TID 0000.0001)                 8.408183191745641E+10,      /* I = 21 */
(PID.TID 0000.0001)                 8.083005486272009E+10,      /* I = 22 */
(PID.TID 0000.0001)                 7.698291833687604E+10,      /* I = 23 */
(PID.TID 0000.0001)                 7.256155653843707E+10,      /* I = 24 */
(PID.TID 0000.0001)                 6.758299971934573E+10,      /* I = 25 */
(PID.TID 0000.0001)                 6.205603937791459E+10,      /* I = 26 */
(PID.TID 0000.0001)                 5.597545074899420E+10,      /* I = 27 */
(PID.TID 0000.0001)                 4.931323764668228E+10,      /* I = 28 */
(PID.TID 0000.0001)                 4.200427377313133E+10,      /* I = 29 */
(PID.TID 0000.0001)                 3.392265412140352E+10,      /* I = 30 */
(PID.TID 0000.0001)                 2.487202533723945E+10,      /* I = 31 */
(PID.TID 0000.0001)     2 @  1.549786705672200E+10,             /* I = 32: 33 */
(PID.TID 0000.0001)                 2.487202533723945E+10,      /* I = 34 */
(PID.TID 0000.0001)                 3.392265412140352E+10,      /* I = 35 */
(PID.TID 0000.0001)                 4.200427377313133E+10,      /* I = 36 */
(PID.TID 0000.0001)                 4.931323764668228E+10,      /* I = 37 */
(PID.TID 0000.0001)                 5.597545074899420E+10,      /* I = 38 */
(PID.TID 0000.0001)                 6.205603937791459E+10,      /* I = 39 */
(PID.TID 0000.0001)                 6.758299971934573E+10,      /* I = 40 */
(PID.TID 0000.0001)                 7.256155653843707E+10,      /* I = 41 */
(PID.TID 0000.0001)                 7.698291833687604E+10,      /* I = 42 */
(PID.TID 0000.0001)                 8.083005486272009E+10,      /* I = 43 */
(PID.TID 0000.0001)                 8.408183191745641E+10,      /* I = 44 */
(PID.TID 0000.0001)                 8.671615787312848E+10,      /* I = 45 */
(PID.TID 0000.0001)                 8.871245486529788E+10,      /* I = 46 */
(PID.TID 0000.0001)                 9.005359372079962E+10,      /* I = 47 */
(PID.TID 0000.0001)     2 @  9.072735712796770E+10,             /* I = 48: 49 */
(PID.TID 0000.0001)                 9.005359372079962E+10,      /* I = 50 */
(PID.TID 0000.0001)                 8.871245486529788E+10,      /* I = 51 */
(PID.TID 0000.0001)                 8.671615787312848E+10,      /* I = 52 */
(PID.TID 0000.0001)                 8.408183191745641E+10,      /* I = 53 */
(PID.TID 0000.0001)                 8.083005486272009E+10,      /* I = 54 */
(PID.TID 0000.0001)                 7.698291833687604E+10,      /* I = 55 */
(PID.TID 0000.0001)                 7.256155653843707E+10,      /* I = 56 */
(PID.TID 0000.0001)                 6.758299971934573E+10,      /* I = 57 */
(PID.TID 0000.0001)                 6.205603937791459E+10,      /* I = 58 */
(PID.TID 0000.0001)                 5.597545074899420E+10,      /* I = 59 */
(PID.TID 0000.0001)                 4.931323764668228E+10,      /* I = 60 */
(PID.TID 0000.0001)                 4.200427377313133E+10,      /* I = 61 */
(PID.TID 0000.0001)                 3.392265412140352E+10,      /* I = 62 */
(PID.TID 0000.0001)                 2.487202533723945E+10,      /* I = 63 */
(PID.TID 0000.0001)     2 @  1.549786705672200E+10,             /* I = 64: 65 */
(PID.TID 0000.0001)                 2.487202533723945E+10,      /* I = 66 */
(PID.TID 0000.0001)                 3.392265412140352E+10,      /* I = 67 */
(PID.TID 0000.0001)                 4.200427377313133E+10,      /* I = 68 */
(PID.TID 0000.0001)                 4.931323764668228E+10,      /* I = 69 */
(PID.TID 0000.0001)                 5.597545074899420E+10,      /* I = 70 */
(PID.TID 0000.0001)                 6.205603937791459E+10,      /* I = 71 */
(PID.TID 0000.0001)                 6.758299971934573E+10,      /* I = 72 */
(PID.TID 0000.0001)                 7.256155653843707E+10,      /* I = 73 */
(PID.TID 0000.0001)                 7.698291833687604E+10,      /* I = 74 */
(PID.TID 0000.0001)                 8.083005486272009E+10,      /* I = 75 */
(PID.TID 0000.0001)                 8.408183191745641E+10,      /* I = 76 */
(PID.TID 0000.0001)                 8.671615787312848E+10,      /* I = 77 */
(PID.TID 0000.0001)                 8.871245486529788E+10,      /* I = 78 */
(PID.TID 0000.0001)                 9.005359372079962E+10,      /* I = 79 */
(PID.TID 0000.0001)     2 @  9.072735712796770E+10,             /* I = 80: 81 */
(PID.TID 0000.0001)                 9.005359372079962E+10,      /* I = 82 */
(PID.TID 0000.0001)                 8.871245486529788E+10,      /* I = 83 */
(PID.TID 0000.0001)                 8.671615787312848E+10,      /* I = 84 */
(PID.TID 0000.0001)                 8.408183191745641E+10,      /* I = 85 */
(PID.TID 0000.0001)                 8.083005486272009E+10,      /* I = 86 */
(PID.TID 0000.0001)                 7.698291833687604E+10,      /* I = 87 */
(PID.TID 0000.0001)                 7.256155653843707E+10,      /* I = 88 */
(PID.TID 0000.0001)                 6.758299971934573E+10,      /* I = 89 */
(PID.TID 0000.0001)                 6.205603937791459E+10,      /* I = 90 */
(PID.TID 0000.0001)                 5.597545074899420E+10,      /* I = 91 */
(PID.TID 0000.0001)                 4.931323764668228E+10,      /* I = 92 */
(PID.TID 0000.0001)                 4.200427377313133E+10,      /* I = 93 */
(PID.TID 0000.0001)                 3.392265412140352E+10,      /* I = 94 */
(PID.TID 0000.0001)                 2.487202533723945E+10,      /* I = 95 */
(PID.TID 0000.0001)     2 @  1.549786705672200E+10,             /* I = 96: 97 */
(PID.TID 0000.0001)                 2.487202533723945E+10,      /* I = 98 */
(PID.TID 0000.0001)                 3.392265412140352E+10,      /* I = 99 */
(PID.TID 0000.0001)                 4.200427377313133E+10,      /* I =100 */
(PID.TID 0000.0001)                 4.931323764668228E+10,      /* I =101 */
(PID.TID 0000.0001)                 5.597545074899420E+10,      /* I =102 */
(PID.TID 0000.0001)                 6.205603937791459E+10,      /* I =103 */
(PID.TID 0000.0001)                 6.758299971934573E+10,      /* I =104 */
(PID.TID 0000.0001)                 7.256155653843707E+10,      /* I =105 */
(PID.TID 0000.0001)                 7.698291833687604E+10,      /* I =106 */
(PID.TID 0000.0001)                 8.083005486272009E+10,      /* I =107 */
(PID.TID 0000.0001)                 8.408183191745641E+10,      /* I =108 */
(PID.TID 0000.0001)                 8.671615787312848E+10,      /* I =109 */
(PID.TID 0000.0001)                 8.871245486529788E+10,      /* I =110 */
(PID.TID 0000.0001)                 9.005359372079962E+10,      /* I =111 */
(PID.TID 0000.0001)     2 @  9.072735712796770E+10,             /* I =112:113 */
(PID.TID 0000.0001)                 9.005359372079962E+10,      /* I =114 */
(PID.TID 0000.0001)                 8.871245486529788E+10,      /* I =115 */
(PID.TID 0000.0001)                 8.671615787312848E+10,      /* I =116 */
(PID.TID 0000.0001)                 8.408183191745641E+10,      /* I =117 */
(PID.TID 0000.0001)                 8.083005486272009E+10,      /* I =118 */
(PID.TID 0000.0001)                 7.698291833687604E+10,      /* I =119 */
(PID.TID 0000.0001)                 7.256155653843707E+10,      /* I =120 */
(PID.TID 0000.0001)                 6.758299971934573E+10,      /* I =121 */
(PID.TID 0000.0001)                 6.205603937791459E+10,      /* I =122 */
(PID.TID 0000.0001)                 5.597545074899420E+10,      /* I =123 */
(PID.TID 0000.0001)                 4.931323764668228E+10,      /* I =124 */
(PID.TID 0000.0001)                 4.200427377313133E+10,      /* I =125 */
(PID.TID 0000.0001)                 3.392265412140352E+10,      /* I =126 */
(PID.TID 0000.0001)                 2.487202533723945E+10,      /* I =127 */
(PID.TID 0000.0001)     2 @  1.549786705672200E+10,             /* I =128:129 */
(PID.TID 0000.0001)                 2.487202533723945E+10,      /* I =130 */
(PID.TID 0000.0001)                 3.392265412140352E+10,      /* I =131 */
(PID.TID 0000.0001)                 4.200427377313133E+10,      /* I =132 */
(PID.TID 0000.0001)                 4.931323764668228E+10,      /* I =133 */
(PID.TID 0000.0001)                 5.597545074899420E+10,      /* I =134 */
(PID.TID 0000.0001)                 6.205603937791459E+10,      /* I =135 */
(PID.TID 0000.0001)                 6.758299971934573E+10,      /* I =136 */
(PID.TID 0000.0001)                 7.256155653843707E+10,      /* I =137 */
(PID.TID 0000.0001)                 7.698291833687604E+10,      /* I =138 */
(PID.TID 0000.0001)                 8.083005486272009E+10,      /* I =139 */
(PID.TID 0000.0001)                 8.408183191745641E+10,      /* I =140 */
(PID.TID 0000.0001)                 8.671615787312848E+10,      /* I =141 */
(PID.TID 0000.0001)                 8.871245486529788E+10,      /* I =142 */
(PID.TID 0000.0001)                 9.005359372079962E+10,      /* I =143 */
(PID.TID 0000.0001)     2 @  9.072735712796770E+10,             /* I =144:145 */
(PID.TID 0000.0001)                 9.005359372079962E+10,      /* I =146 */
(PID.TID 0000.0001)                 8.871245486529788E+10,      /* I =147 */
(PID.TID 0000.0001)                 8.671615787312848E+10,      /* I =148 */
(PID.TID 0000.0001)                 8.408183191745641E+10,      /* I =149 */
(PID.TID 0000.0001)                 8.083005486272009E+10,      /* I =150 */
(PID.TID 0000.0001)                 7.698291833687604E+10,      /* I =151 */
(PID.TID 0000.0001)                 7.256155653843707E+10,      /* I =152 */
(PID.TID 0000.0001)                 6.758299971934573E+10,      /* I =153 */
(PID.TID 0000.0001)                 6.205603937791459E+10,      /* I =154 */
(PID.TID 0000.0001)                 5.597545074899420E+10,      /* I =155 */
(PID.TID 0000.0001)                 4.931323764668228E+10,      /* I =156 */
(PID.TID 0000.0001)                 4.200427377313133E+10,      /* I =157 */
(PID.TID 0000.0001)                 3.392265412140352E+10,      /* I =158 */
(PID.TID 0000.0001)                 2.487202533723945E+10,      /* I =159 */
(PID.TID 0000.0001)     2 @  1.549786705672200E+10,             /* I =160:161 */
(PID.TID 0000.0001)                 2.487202533723945E+10,      /* I =162 */
(PID.TID 0000.0001)                 3.392265412140352E+10,      /* I =163 */
(PID.TID 0000.0001)                 4.200427377313133E+10,      /* I =164 */
(PID.TID 0000.0001)                 4.931323764668228E+10,      /* I =165 */
(PID.TID 0000.0001)                 5.597545074899420E+10,      /* I =166 */
(PID.TID 0000.0001)                 6.205603937791459E+10,      /* I =167 */
(PID.TID 0000.0001)                 6.758299971934573E+10,      /* I =168 */
(PID.TID 0000.0001)                 7.256155653843707E+10,      /* I =169 */
(PID.TID 0000.0001)                 7.698291833687604E+10,      /* I =170 */
(PID.TID 0000.0001)                 8.083005486272009E+10,      /* I =171 */
(PID.TID 0000.0001)                 8.408183191745641E+10,      /* I =172 */
(PID.TID 0000.0001)                 8.671615787312848E+10,      /* I =173 */
(PID.TID 0000.0001)                 8.871245486529788E+10,      /* I =174 */
(PID.TID 0000.0001)                 9.005359372079962E+10,      /* I =175 */
(PID.TID 0000.0001)     2 @  9.072735712796770E+10,             /* I =176:177 */
(PID.TID 0000.0001)                 9.005359372079962E+10,      /* I =178 */
(PID.TID 0000.0001)                 8.871245486529788E+10,      /* I =179 */
(PID.TID 0000.0001)                 8.671615787312848E+10,      /* I =180 */
(PID.TID 0000.0001)                 8.408183191745641E+10,      /* I =181 */
(PID.TID 0000.0001)                 8.083005486272009E+10,      /* I =182 */
(PID.TID 0000.0001)                 7.698291833687604E+10,      /* I =183 */
(PID.TID 0000.0001)                 7.256155653843707E+10,      /* I =184 */
(PID.TID 0000.0001)                 6.758299971934573E+10,      /* I =185 */
(PID.TID 0000.0001)                 6.205603937791459E+10,      /* I =186 */
(PID.TID 0000.0001)                 5.597545074899420E+10,      /* I =187 */
(PID.TID 0000.0001)                 4.931323764668228E+10,      /* I =188 */
(PID.TID 0000.0001)                 4.200427377313133E+10,      /* I =189 */
(PID.TID 0000.0001)                 3.392265412140352E+10,      /* I =190 */
(PID.TID 0000.0001)                 2.487202533723945E+10,      /* I =191 */
(PID.TID 0000.0001)                 1.549786705672200E+10       /* I =192 */
(PID.TID 0000.0001)     ;
(PID.TID 0000.0001) rA  =  /* rA (1,:,1,:) ( units: m^2 ) */
(PID.TID 0000.0001)                 1.549786705672200E+10,      /* J =  1 */
(PID.TID 0000.0001)                 2.487202533723945E+10,      /* J =  2 */
(PID.TID 0000.0001)                 3.392265412140352E+10,      /* J =  3 */
(PID.TID 0000.0001)                 4.200427377313133E+10,      /* J =  4 */
(PID.TID 0000.0001)                 4.931323764668228E+10,      /* J =  5 */
(PID.TID 0000.0001)                 5.597545074899419E+10,      /* J =  6 */
(PID.TID 0000.0001)                 6.205603937791459E+10,      /* J =  7 */
(PID.TID 0000.0001)                 6.758299971934573E+10,      /* J =  8 */
(PID.TID 0000.0001)                 7.256155653843707E+10,      /* J =  9 */
(PID.TID 0000.0001)                 7.698291833687604E+10,      /* J = 10 */
(PID.TID 0000.0001)                 8.083005486272011E+10,      /* J = 11 */
(PID.TID 0000.0001)                 8.408183191745641E+10,      /* J = 12 */
(PID.TID 0000.0001)                 8.671615787312848E+10,      /* J = 13 */
(PID.TID 0000.0001)                 8.871245486529788E+10,      /* J = 14 */
(PID.TID 0000.0001)                 9.005359372079964E+10,      /* J = 15 */
(PID.TID 0000.0001)     2 @  9.072735712796770E+10,             /* J = 16: 17 */
(PID.TID 0000.0001)                 9.005359372079964E+10,      /* J = 18 */
(PID.TID 0000.0001)                 8.871245486529788E+10,      /* J = 19 */
(PID.TID 0000.0001)                 8.671615787312848E+10,      /* J = 20 */
(PID.TID 0000.0001)                 8.408183191745641E+10,      /* J = 21 */
(PID.TID 0000.0001)                 8.083005486272011E+10,      /* J = 22 */
(PID.TID 0000.0001)                 7.698291833687604E+10,      /* J = 23 */
(PID.TID 0000.0001)                 7.256155653843707E+10,      /* J = 24 */
(PID.TID 0000.0001)                 6.758299971934573E+10,      /* J = 25 */
(PID.TID 0000.0001)                 6.205603937791459E+10,      /* J = 26 */
(PID.TID 0000.0001)                 5.597545074899419E+10,      /* J = 27 */
(PID.TID 0000.0001)                 4.931323764668228E+10,      /* J = 28 */
(PID.TID 0000.0001)                 4.200427377313133E+10,      /* J = 29 */
(PID.TID 0000.0001)                 3.392265412140352E+10,      /* J = 30 */
(PID.TID 0000.0001)                 2.487202533723945E+10,      /* J = 31 */
(PID.TID 0000.0001)                 1.549786705672200E+10       /* J = 32 */
(PID.TID 0000.0001)     ;
(PID.TID 0000.0001) rAw =  /* rAw(:,1,:,1) ( units: m^2 ) */
(PID.TID 0000.0001)                 1.146542574196578E+10,      /* I =  1 */
(PID.TID 0000.0001)                 1.953030837147821E+10,      /* I =  2 */
(PID.TID 0000.0001)                 2.933967873337320E+10,      /* I =  3 */
(PID.TID 0000.0001)                 3.796176706541101E+10,      /* I =  4 */
(PID.TID 0000.0001)                 4.567569462064098E+10,      /* I =  5 */
(PID.TID 0000.0001)                 5.267377164042021E+10,      /* I =  6 */
(PID.TID 0000.0001)                 5.905615583203223E+10,      /* I =  7 */
(PID.TID 0000.0001)                 6.487043381386549E+10,      /* I =  8 */
(PID.TID 0000.0001)                 7.013339442433482E+10,      /* I =  9 */
(PID.TID 0000.0001)                 7.484316069116351E+10,      /* I = 10 */
(PID.TID 0000.0001)                 7.898662143005907E+10,      /* I = 11 */
(PID.TID 0000.0001)                 8.254445101987663E+10,      /* I = 12 */
(PID.TID 0000.0001)                 8.549478360691351E+10,      /* I = 13 */
(PID.TID 0000.0001)                 8.781604517750543E+10,      /* I = 14 */
(PID.TID 0000.0001)                 8.948917519517891E+10,      /* I = 15 */
(PID.TID 0000.0001)                 9.049933392602551E+10,      /* I = 16 */
(PID.TID 0000.0001)                 9.083715262395342E+10,      /* I = 17 */
(PID.TID 0000.0001)                 9.049933392602551E+10,      /* I = 18 */
(PID.TID 0000.0001)                 8.948917519517891E+10,      /* I = 19 */
(PID.TID 0000.0001)                 8.781604517750543E+10,      /* I = 20 */
(PID.TID 0000.0001)                 8.549478360691351E+10,      /* I = 21 */
(PID.TID 0000.0001)                 8.254445101987663E+10,      /* I = 22 */
(PID.TID 0000.0001)                 7.898662143005907E+10,      /* I = 23 */
(PID.TID 0000.0001)                 7.484316069116351E+10,      /* I = 24 */
(PID.TID 0000.0001)                 7.013339442433482E+10,      /* I = 25 */
(PID.TID 0000.0001)                 6.487043381386549E+10,      /* I = 26 */
(PID.TID 0000.0001)                 5.905615583203223E+10,      /* I = 27 */
(PID.TID 0000.0001)                 5.267377164042021E+10,      /* I = 28 */
(PID.TID 0000.0001)                 4.567569462064098E+10,      /* I = 29 */
(PID.TID 0000.0001)                 3.796176706541101E+10,      /* I = 30 */
(PID.TID 0000.0001)                 2.933967873337320E+10,      /* I = 31 */
(PID.TID 0000.0001)                 1.953030837147821E+10,      /* I = 32 */
(PID.TID 0000.0001)                 1.146542574196578E+10,      /* I = 33 */
(PID.TID 0000.0001)                 1.953030837147821E+10,      /* I = 34 */
(PID.TID 0000.0001)                 2.933967873337320E+10,      /* I = 35 */
(PID.TID 0000.0001)                 3.796176706541101E+10,      /* I = 36 */
(PID.TID 0000.0001)                 4.567569462064098E+10,      /* I = 37 */
(PID.TID 0000.0001)                 5.267377164042021E+10,      /* I = 38 */
(PID.TID 0000.0001)                 5.905615583203223E+10,      /* I = 39 */
(PID.TID 0000.0001)                 6.487043381386549E+10,      /* I = 40 */
(PID.TID 0000.0001)                 7.013339442433482E+10,      /* I = 41 */
(PID.TID 0000.0001)                 7.484316069116351E+10,      /* I = 42 */
(PID.TID 0000.0001)                 7.898662143005907E+10,      /* I = 43 */
(PID.TID 0000.0001)                 8.254445101987663E+10,      /* I = 44 */
(PID.TID 0000.0001)                 8.549478360691351E+10,      /* I = 45 */
(PID.TID 0000.0001)                 8.781604517750543E+10,      /* I = 46 */
(PID.TID 0000.0001)                 8.948917519517891E+10,      /* I = 47 */
(PID.TID 0000.0001)                 9.049933392602551E+10,      /* I = 48 */
(PID.TID 0000.0001)                 9.083715262395342E+10,      /* I = 49 */
(PID.TID 0000.0001)                 9.049933392602551E+10,      /* I = 50 */
(PID.TID 0000.0001)                 8.948917519517891E+10,      /* I = 51 */
(PID.TID 0000.0001)                 8.781604517750543E+10,      /* I = 52 */
(PID.TID 0000.0001)                 8.549478360691351E+10,      /* I = 53 */
(PID.TID 0000.0001)                 8.254445101987663E+10,      /* I = 54 */
(PID.TID 0000.0001)                 7.898662143005907E+10,      /* I = 55 */
(PID.TID 0000.0001)                 7.484316069116351E+10,      /* I = 56 */
(PID.TID 0000.0001)                 7.013339442433482E+10,      /* I = 57 */
(PID.TID 0000.0001)                 6.487043381386549E+10,      /* I = 58 */
(PID.TID 0000.0001)                 5.905615583203223E+10,      /* I = 59 */
(PID.TID 0000.0001)                 5.267377164042021E+10,      /* I = 60 */
(PID.TID 0000.0001)                 4.567569462064098E+10,      /* I = 61 */
(PID.TID 0000.0001)                 3.796176706541101E+10,      /* I = 62 */
(PID.TID 0000.0001)                 2.933967873337320E+10,      /* I = 63 */
(PID.TID 0000.0001)                 1.953030837147821E+10,      /* I = 64 */
(PID.TID 0000.0001)                 1.146542574196578E+10,      /* I = 65 */
(PID.TID 0000.0001)                 1.953030837147821E+10,      /* I = 66 */
(PID.TID 0000.0001)                 2.933967873337320E+10,      /* I = 67 */
(PID.TID 0000.0001)                 3.796176706541101E+10,      /* I = 68 */
(PID.TID 0000.0001)                 4.567569462064098E+10,      /* I = 69 */
(PID.TID 0000.0001)                 5.267377164042021E+10,      /* I = 70 */
(PID.TID 0000.0001)                 5.905615583203223E+10,      /* I = 71 */
(PID.TID 0000.0001)                 6.487043381386549E+10,      /* I = 72 */
(PID.TID 0000.0001)                 7.013339442433482E+10,      /* I = 73 */
(PID.TID 0000.0001)                 7.484316069116351E+10,      /* I = 74 */
(PID.TID 0000.0001)                 7.898662143005907E+10,      /* I = 75 */
(PID.TID 0000.0001)                 8.254445101987663E+10,      /* I = 76 */
(PID.TID 0000.0001)                 8.549478360691351E+10,      /* I = 77 */
(PID.TID 0000.0001)                 8.781604517750543E+10,      /* I = 78 */
(PID.TID 0000.0001)                 8.948917519517891E+10,      /* I = 79 */
(PID.TID 0000.0001)                 9.049933392602551E+10,      /* I = 80 */
(PID.TID 0000.0001)                 9.083715262395342E+10,      /* I = 81 */
(PID.TID 0000.0001)                 9.049933392602551E+10,      /* I = 82 */
(PID.TID 0000.0001)                 8.948917519517891E+10,      /* I = 83 */
(PID.TID 0000.0001)                 8.781604517750543E+10,      /* I = 84 */
(PID.TID 0000.0001)                 8.549478360691351E+10,      /* I = 85 */
(PID.TID 0000.0001)                 8.254445101987663E+10,      /* I = 86 */
(PID.TID 0000.0001)                 7.898662143005907E+10,      /* I = 87 */
(PID.TID 0000.0001)                 7.484316069116351E+10,      /* I = 88 */
(PID.TID 0000.0001)                 7.013339442433482E+10,      /* I = 89 */
(PID.TID 0000.0001)                 6.487043381386549E+10,      /* I = 90 */
(PID.TID 0000.0001)                 5.905615583203223E+10,      /* I = 91 */
(PID.TID 0000.0001)                 5.267377164042021E+10,      /* I = 92 */
(PID.TID 0000.0001)                 4.567569462064098E+10,      /* I = 93 */
(PID.TID 0000.0001)                 3.796176706541101E+10,      /* I = 94 */
(PID.TID 0000.0001)                 2.933967873337320E+10,      /* I = 95 */
(PID.TID 0000.0001)                 1.953030837147821E+10,      /* I = 96 */
(PID.TID 0000.0001)                 1.146542574196578E+10,      /* I = 97 */
(PID.TID 0000.0001)                 1.953030837147821E+10,      /* I = 98 */
(PID.TID 0000.0001)                 2.933967873337320E+10,      /* I = 99 */
(PID.TID 0000.0001)                 3.796176706541101E+10,      /* I =100 */
(PID.TID 0000.0001)                 4.567569462064098E+10,      /* I =101 */
(PID.TID 0000.0001)                 5.267377164042021E+10,      /* I =102 */
(PID.TID 0000.0001)                 5.905615583203223E+10,      /* I =103 */
(PID.TID 0000.0001)                 6.487043381386549E+10,      /* I =104 */
(PID.TID 0000.0001)                 7.013339442433482E+10,      /* I =105 */
(PID.TID 0000.0001)                 7.484316069116351E+10,      /* I =106 */
(PID.TID 0000.0001)                 7.898662143005907E+10,      /* I =107 */
(PID.TID 0000.0001)                 8.254445101987663E+10,      /* I =108 */
(PID.TID 0000.0001)                 8.549478360691351E+10,      /* I =109 */
(PID.TID 0000.0001)                 8.781604517750543E+10,      /* I =110 */
(PID.TID 0000.0001)                 8.948917519517891E+10,      /* I =111 */
(PID.TID 0000.0001)                 9.049933392602551E+10,      /* I =112 */
(PID.TID 0000.0001)                 9.083715262395342E+10,      /* I =113 */
(PID.TID 0000.0001)                 9.049933392602551E+10,      /* I =114 */
(PID.TID 0000.0001)                 8.948917519517891E+10,      /* I =115 */
(PID.TID 0000.0001)                 8.781604517750543E+10,      /* I =116 */
(PID.TID 0000.0001)                 8.549478360691351E+10,      /* I =117 */
(PID.TID 0000.0001)                 8.254445101987663E+10,      /* I =118 */
(PID.TID 0000.0001)                 7.898662143005907E+10,      /* I =119 */
(PID.TID 0000.0001)                 7.484316069116351E+10,      /* I =120 */
(PID.TID 0000.0001)                 7.013339442433482E+10,      /* I =121 */
(PID.TID 0000.0001)                 6.487043381386549E+10,      /* I =122 */
(PID.TID 0000.0001)                 5.905615583203223E+10,      /* I =123 */
(PID.TID 0000.0001)                 5.267377164042021E+10,      /* I =124 */
(PID.TID 0000.0001)                 4.567569462064098E+10,      /* I =125 */
(PID.TID 0000.0001)                 3.796176706541101E+10,      /* I =126 */
(PID.TID 0000.0001)                 2.933967873337320E+10,      /* I =127 */
(PID.TID 0000.0001)                 1.953030837147821E+10,      /* I =128 */
(PID.TID 0000.0001)                 1.146542574196578E+10,      /* I =129 */
(PID.TID 0000.0001)                 1.953030837147821E+10,      /* I =130 */
(PID.TID 0000.0001)                 2.933967873337320E+10,      /* I =131 */
(PID.TID 0000.0001)                 3.796176706541101E+10,      /* I =132 */
(PID.TID 0000.0001)                 4.567569462064098E+10,      /* I =133 */
(PID.TID 0000.0001)                 5.267377164042021E+10,      /* I =134 */
(PID.TID 0000.0001)                 5.905615583203223E+10,      /* I =135 */
(PID.TID 0000.0001)                 6.487043381386549E+10,      /* I =136 */
(PID.TID 0000.0001)                 7.013339442433482E+10,      /* I =137 */
(PID.TID 0000.0001)                 7.484316069116351E+10,      /* I =138 */
(PID.TID 0000.0001)                 7.898662143005907E+10,      /* I =139 */
(PID.TID 0000.0001)                 8.254445101987663E+10,      /* I =140 */
(PID.TID 0000.0001)                 8.549478360691351E+10,      /* I =141 */
(PID.TID 0000.0001)                 8.781604517750543E+10,      /* I =142 */
(PID.TID 0000.0001)                 8.948917519517891E+10,      /* I =143 */
(PID.TID 0000.0001)                 9.049933392602551E+10,      /* I =144 */
(PID.TID 0000.0001)                 9.083715262395342E+10,      /* I =145 */
(PID.TID 0000.0001)                 9.049933392602551E+10,      /* I =146 */
(PID.TID 0000.0001)                 8.948917519517891E+10,      /* I =147 */
(PID.TID 0000.0001)                 8.781604517750543E+10,      /* I =148 */
(PID.TID 0000.0001)                 8.549478360691351E+10,      /* I =149 */
(PID.TID 0000.0001)                 8.254445101987663E+10,      /* I =150 */
(PID.TID 0000.0001)                 7.898662143005907E+10,      /* I =151 */
(PID.TID 0000.0001)                 7.484316069116351E+10,      /* I =152 */
(PID.TID 0000.0001)                 7.013339442433482E+10,      /* I =153 */
(PID.TID 0000.0001)                 6.487043381386549E+10,      /* I =154 */
(PID.TID 0000.0001)                 5.905615583203223E+10,      /* I =155 */
(PID.TID 0000.0001)                 5.267377164042021E+10,      /* I =156 */
(PID.TID 0000.0001)                 4.567569462064098E+10,      /* I =157 */
(PID.TID 0000.0001)                 3.796176706541101E+10,      /* I =158 */
(PID.TID 0000.0001)                 2.933967873337320E+10,      /* I =159 */
(PID.TID 0000.0001)                 1.953030837147821E+10,      /* I =160 */
(PID.TID 0000.0001)                 1.146542574196578E+10,      /* I =161 */
(PID.TID 0000.0001)                 1.953030837147821E+10,      /* I =162 */
(PID.TID 0000.0001)                 2.933967873337320E+10,      /* I =163 */
(PID.TID 0000.0001)                 3.796176706541101E+10,      /* I =164 */
(PID.TID 0000.0001)                 4.567569462064098E+10,      /* I =165 */
(PID.TID 0000.0001)                 5.267377164042021E+10,      /* I =166 */
(PID.TID 0000.0001)                 5.905615583203223E+10,      /* I =167 */
(PID.TID 0000.0001)                 6.487043381386549E+10,      /* I =168 */
(PID.TID 0000.0001)                 7.013339442433482E+10,      /* I =169 */
(PID.TID 0000.0001)                 7.484316069116351E+10,      /* I =170 */
(PID.TID 0000.0001)                 7.898662143005907E+10,      /* I =171 */
(PID.TID 0000.0001)                 8.254445101987663E+10,      /* I =172 */
(PID.TID 0000.0001)                 8.549478360691351E+10,      /* I =173 */
(PID.TID 0000.0001)                 8.781604517750543E+10,      /* I =174 */
(PID.TID 0000.0001)                 8.948917519517891E+10,      /* I =175 */
(PID.TID 0000.0001)                 9.049933392602551E+10,      /* I =176 */
(PID.TID 0000.0001)                 9.083715262395342E+10,      /* I =177 */
(PID.TID 0000.0001)                 9.049933392602551E+10,      /* I =178 */
(PID.TID 0000.0001)                 8.948917519517891E+10,      /* I =179 */
(PID.TID 0000.0001)                 8.781604517750543E+10,      /* I =180 */
(PID.TID 0000.0001)                 8.549478360691351E+10,      /* I =181 */
(PID.TID 0000.0001)                 8.254445101987663E+10,      /* I =182 */
(PID.TID 0000.0001)                 7.898662143005907E+10,      /* I =183 */
(PID.TID 0000.0001)                 7.484316069116351E+10,      /* I =184 */
(PID.TID 0000.0001)                 7.013339442433482E+10,      /* I =185 */
(PID.TID 0000.0001)                 6.487043381386549E+10,      /* I =186 */
(PID.TID 0000.0001)                 5.905615583203223E+10,      /* I =187 */
(PID.TID 0000.0001)                 5.267377164042021E+10,      /* I =188 */
(PID.TID 0000.0001)                 4.567569462064098E+10,      /* I =189 */
(PID.TID 0000.0001)                 3.796176706541101E+10,      /* I =190 */
(PID.TID 0000.0001)                 2.933967873337320E+10,      /* I =191 */
(PID.TID 0000.0001)                 1.953030837147821E+10       /* I =192 */
(PID.TID 0000.0001)     ;
(PID.TID 0000.0001) rAw =  /* rAw(1,:,1,:) ( units: m^2 ) */
(PID.TID 0000.0001)                 1.146542574196578E+10,      /* J =  1 */
(PID.TID 0000.0001)                 2.377787005983833E+10,      /* J =  2 */
(PID.TID 0000.0001)                 3.336273018972140E+10,      /* J =  3 */
(PID.TID 0000.0001)                 4.165099566747280E+10,      /* J =  4 */
(PID.TID 0000.0001)                 4.906782896008959E+10,      /* J =  5 */
(PID.TID 0000.0001)                 5.579613053300137E+10,      /* J =  6 */
(PID.TID 0000.0001)                 6.192151981164894E+10,      /* J =  7 */
(PID.TID 0000.0001)                 6.748097638954340E+10,      /* J =  8 */
(PID.TID 0000.0001)                 7.248418794208269E+10,      /* J =  9 */
(PID.TID 0000.0001)                 7.692477203447566E+10,      /* J = 10 */
(PID.TID 0000.0001)                 8.078707194826852E+10,      /* J = 11 */
(PID.TID 0000.0001)                 8.405076334249313E+10,      /* J = 12 */
(PID.TID 0000.0001)                 8.669423991218034E+10,      /* J = 13 */
(PID.TID 0000.0001)                 8.869721460381146E+10,      /* J = 14 */
(PID.TID 0000.0001)                 9.004272888354184E+10,      /* J = 15 */
(PID.TID 0000.0001)     2 @  9.071865929421040E+10,             /* J = 16: 17 */
(PID.TID 0000.0001)                 9.004272888354184E+10,      /* J = 18 */
(PID.TID 0000.0001)                 8.869721460381146E+10,      /* J = 19 */
(PID.TID 0000.0001)                 8.669423991218034E+10,      /* J = 20 */
(PID.TID 0000.0001)                 8.405076334249313E+10,      /* J = 21 */
(PID.TID 0000.0001)                 8.078707194826852E+10,      /* J = 22 */
(PID.TID 0000.0001)                 7.692477203447566E+10,      /* J = 23 */
(PID.TID 0000.0001)                 7.248418794208269E+10,      /* J = 24 */
(PID.TID 0000.0001)                 6.748097638954340E+10,      /* J = 25 */
(PID.TID 0000.0001)                 6.192151981164894E+10,      /* J = 26 */
(PID.TID 0000.0001)                 5.579613053300137E+10,      /* J = 27 */
(PID.TID 0000.0001)                 4.906782896008959E+10,      /* J = 28 */
(PID.TID 0000.0001)                 4.165099566747280E+10,      /* J = 29 */
(PID.TID 0000.0001)                 3.336273018972140E+10,      /* J = 30 */
(PID.TID 0000.0001)                 2.377787005983833E+10,      /* J = 31 */
(PID.TID 0000.0001)                 1.146542574196578E+10       /* J = 32 */
(PID.TID 0000.0001)     ;
(PID.TID 0000.0001) rAs =  /* rAs(:,1,:,1) ( units: m^2 ) */
(PID.TID 0000.0001)                 1.146542574196578E+10,      /* I =  1 */
(PID.TID 0000.0001)                 2.377787005983833E+10,      /* I =  2 */
(PID.TID 0000.0001)                 3.336273018972140E+10,      /* I =  3 */
(PID.TID 0000.0001)                 4.165099566747280E+10,      /* I =  4 */
(PID.TID 0000.0001)                 4.906782896008959E+10,      /* I =  5 */
(PID.TID 0000.0001)                 5.579613053300137E+10,      /* I =  6 */
(PID.TID 0000.0001)                 6.192151981164894E+10,      /* I =  7 */
(PID.TID 0000.0001)                 6.748097638954340E+10,      /* I =  8 */
(PID.TID 0000.0001)                 7.248418794208269E+10,      /* I =  9 */
(PID.TID 0000.0001)                 7.692477203447566E+10,      /* I = 10 */
(PID.TID 0000.0001)                 8.078707194826852E+10,      /* I = 11 */
(PID.TID 0000.0001)                 8.405076334249313E+10,      /* I = 12 */
(PID.TID 0000.0001)                 8.669423991218034E+10,      /* I = 13 */
(PID.TID 0000.0001)                 8.869721460381146E+10,      /* I = 14 */
(PID.TID 0000.0001)                 9.004272888354184E+10,      /* I = 15 */
(PID.TID 0000.0001)     2 @  9.071865929421040E+10,             /* I = 16: 17 */
(PID.TID 0000.0001)                 9.004272888354184E+10,      /* I = 18 */
(PID.TID 0000.0001)                 8.869721460381146E+10,      /* I = 19 */
(PID.TID 0000.0001)                 8.669423991218034E+10,      /* I = 20 */
(PID.TID 0000.0001)                 8.405076334249313E+10,      /* I = 21 */
(PID.TID 0000.0001)                 8.078707194826852E+10,      /* I = 22 */
(PID.TID 0000.0001)                 7.692477203447566E+10,      /* I = 23 */
(PID.TID 0000.0001)                 7.248418794208269E+10,      /* I = 24 */
(PID.TID 0000.0001)                 6.748097638954340E+10,      /* I = 25 */
(PID.TID 0000.0001)                 6.192151981164894E+10,      /* I = 26 */
(PID.TID 0000.0001)                 5.579613053300137E+10,      /* I = 27 */
(PID.TID 0000.0001)                 4.906782896008959E+10,      /* I = 28 */
(PID.TID 0000.0001)                 4.165099566747280E+10,      /* I = 29 */
(PID.TID 0000.0001)                 3.336273018972140E+10,      /* I = 30 */
(PID.TID 0000.0001)                 2.377787005983833E+10,      /* I = 31 */
(PID.TID 0000.0001)     2 @  1.146542574196578E+10,             /* I = 32: 33 */
(PID.TID 0000.0001)                 2.377787005983833E+10,      /* I = 34 */
(PID.TID 0000.0001)                 3.336273018972140E+10,      /* I = 35 */
(PID.TID 0000.0001)                 4.165099566747280E+10,      /* I = 36 */
(PID.TID 0000.0001)                 4.906782896008959E+10,      /* I = 37 */
(PID.TID 0000.0001)                 5.579613053300137E+10,      /* I = 38 */
(PID.TID 0000.0001)                 6.192151981164894E+10,      /* I = 39 */
(PID.TID 0000.0001)                 6.748097638954340E+10,      /* I = 40 */
(PID.TID 0000.0001)                 7.248418794208269E+10,      /* I = 41 */
(PID.TID 0000.0001)                 7.692477203447566E+10,      /* I = 42 */
(PID.TID 0000.0001)                 8.078707194826852E+10,      /* I = 43 */
(PID.TID 0000.0001)                 8.405076334249313E+10,      /* I = 44 */
(PID.TID 0000.0001)                 8.669423991218034E+10,      /* I = 45 */
(PID.TID 0000.0001)                 8.869721460381146E+10,      /* I = 46 */
(PID.TID 0000.0001)                 9.004272888354184E+10,      /* I = 47 */
(PID.TID 0000.0001)     2 @  9.071865929421040E+10,             /* I = 48: 49 */
(PID.TID 0000.0001)                 9.004272888354184E+10,      /* I = 50 */
(PID.TID 0000.0001)                 8.869721460381146E+10,      /* I = 51 */
(PID.TID 0000.0001)                 8.669423991218034E+10,      /* I = 52 */
(PID.TID 0000.0001)                 8.405076334249313E+10,      /* I = 53 */
(PID.TID 0000.0001)                 8.078707194826852E+10,      /* I = 54 */
(PID.TID 0000.0001)                 7.692477203447566E+10,      /* I = 55 */
(PID.TID 0000.0001)                 7.248418794208269E+10,      /* I = 56 */
(PID.TID 0000.0001)                 6.748097638954340E+10,      /* I = 57 */
(PID.TID 0000.0001)                 6.192151981164894E+10,      /* I = 58 */
(PID.TID 0000.0001)                 5.579613053300137E+10,      /* I = 59 */
(PID.TID 0000.0001)                 4.906782896008959E+10,      /* I = 60 */
(PID.TID 0000.0001)                 4.165099566747280E+10,      /* I = 61 */
(PID.TID 0000.0001)                 3.336273018972140E+10,      /* I = 62 */
(PID.TID 0000.0001)                 2.377787005983833E+10,      /* I = 63 */
(PID.TID 0000.0001)     2 @  1.146542574196578E+10,             /* I = 64: 65 */
(PID.TID 0000.0001)                 2.377787005983833E+10,      /* I = 66 */
(PID.TID 0000.0001)                 3.336273018972140E+10,      /* I = 67 */
(PID.TID 0000.0001)                 4.165099566747280E+10,      /* I = 68 */
(PID.TID 0000.0001)                 4.906782896008959E+10,      /* I = 69 */
(PID.TID 0000.0001)                 5.579613053300137E+10,      /* I = 70 */
(PID.TID 0000.0001)                 6.192151981164894E+10,      /* I = 71 */
(PID.TID 0000.0001)                 6.748097638954340E+10,      /* I = 72 */
(PID.TID 0000.0001)                 7.248418794208269E+10,      /* I = 73 */
(PID.TID 0000.0001)                 7.692477203447566E+10,      /* I = 74 */
(PID.TID 0000.0001)                 8.078707194826852E+10,      /* I = 75 */
(PID.TID 0000.0001)                 8.405076334249313E+10,      /* I = 76 */
(PID.TID 0000.0001)                 8.669423991218034E+10,      /* I = 77 */
(PID.TID 0000.0001)                 8.869721460381146E+10,      /* I = 78 */
(PID.TID 0000.0001)                 9.004272888354184E+10,      /* I = 79 */
(PID.TID 0000.0001)     2 @  9.071865929421040E+10,             /* I = 80: 81 */
(PID.TID 0000.0001)                 9.004272888354184E+10,      /* I = 82 */
(PID.TID 0000.0001)                 8.869721460381146E+10,      /* I = 83 */
(PID.TID 0000.0001)                 8.669423991218034E+10,      /* I = 84 */
(PID.TID 0000.0001)                 8.405076334249313E+10,      /* I = 85 */
(PID.TID 0000.0001)                 8.078707194826852E+10,      /* I = 86 */
(PID.TID 0000.0001)                 7.692477203447566E+10,      /* I = 87 */
(PID.TID 0000.0001)                 7.248418794208269E+10,      /* I = 88 */
(PID.TID 0000.0001)                 6.748097638954340E+10,      /* I = 89 */
(PID.TID 0000.0001)                 6.192151981164894E+10,      /* I = 90 */
(PID.TID 0000.0001)                 5.579613053300137E+10,      /* I = 91 */
(PID.TID 0000.0001)                 4.906782896008959E+10,      /* I = 92 */
(PID.TID 0000.0001)                 4.165099566747280E+10,      /* I = 93 */
(PID.TID 0000.0001)                 3.336273018972140E+10,      /* I = 94 */
(PID.TID 0000.0001)                 2.377787005983833E+10,      /* I = 95 */
(PID.TID 0000.0001)     2 @  1.146542574196578E+10,             /* I = 96: 97 */
(PID.TID 0000.0001)                 2.377787005983833E+10,      /* I = 98 */
(PID.TID 0000.0001)                 3.336273018972140E+10,      /* I = 99 */
(PID.TID 0000.0001)                 4.165099566747280E+10,      /* I =100 */
(PID.TID 0000.0001)                 4.906782896008959E+10,      /* I =101 */
(PID.TID 0000.0001)                 5.579613053300137E+10,      /* I =102 */
(PID.TID 0000.0001)                 6.192151981164894E+10,      /* I =103 */
(PID.TID 0000.0001)                 6.748097638954340E+10,      /* I =104 */
(PID.TID 0000.0001)                 7.248418794208269E+10,      /* I =105 */
(PID.TID 0000.0001)                 7.692477203447566E+10,      /* I =106 */
(PID.TID 0000.0001)                 8.078707194826852E+10,      /* I =107 */
(PID.TID 0000.0001)                 8.405076334249313E+10,      /* I =108 */
(PID.TID 0000.0001)                 8.669423991218034E+10,      /* I =109 */
(PID.TID 0000.0001)                 8.869721460381146E+10,      /* I =110 */
(PID.TID 0000.0001)                 9.004272888354184E+10,      /* I =111 */
(PID.TID 0000.0001)     2 @  9.071865929421040E+10,             /* I =112:113 */
(PID.TID 0000.0001)                 9.004272888354184E+10,      /* I =114 */
(PID.TID 0000.0001)                 8.869721460381146E+10,      /* I =115 */
(PID.TID 0000.0001)                 8.669423991218034E+10,      /* I =116 */
(PID.TID 0000.0001)                 8.405076334249313E+10,      /* I =117 */
(PID.TID 0000.0001)                 8.078707194826852E+10,      /* I =118 */
(PID.TID 0000.0001)                 7.692477203447566E+10,      /* I =119 */
(PID.TID 0000.0001)                 7.248418794208269E+10,      /* I =120 */
(PID.TID 0000.0001)                 6.748097638954340E+10,      /* I =121 */
(PID.TID 0000.0001)                 6.192151981164894E+10,      /* I =122 */
(PID.TID 0000.0001)                 5.579613053300137E+10,      /* I =123 */
(PID.TID 0000.0001)                 4.906782896008959E+10,      /* I =124 */
(PID.TID 0000.0001)                 4.165099566747280E+10,      /* I =125 */
(PID.TID 0000.0001)                 3.336273018972140E+10,      /* I =126 */
(PID.TID 0000.0001)                 2.377787005983833E+10,      /* I =127 */
(PID.TID 0000.0001)     2 @  1.146542574196578E+10,             /* I =128:129 */
(PID.TID 0000.0001)                 2.377787005983833E+10,      /* I =130 */
(PID.TID 0000.0001)                 3.336273018972140E+10,      /* I =131 */
(PID.TID 0000.0001)                 4.165099566747280E+10,      /* I =132 */
(PID.TID 0000.0001)                 4.906782896008959E+10,      /* I =133 */
(PID.TID 0000.0001)                 5.579613053300137E+10,      /* I =134 */
(PID.TID 0000.0001)                 6.192151981164894E+10,      /* I =135 */
(PID.TID 0000.0001)                 6.748097638954340E+10,      /* I =136 */
(PID.TID 0000.0001)                 7.248418794208269E+10,      /* I =137 */
(PID.TID 0000.0001)                 7.692477203447566E+10,      /* I =138 */
(PID.TID 0000.0001)                 8.078707194826852E+10,      /* I =139 */
(PID.TID 0000.0001)                 8.405076334249313E+10,      /* I =140 */
(PID.TID 0000.0001)                 8.669423991218034E+10,      /* I =141 */
(PID.TID 0000.0001)                 8.869721460381146E+10,      /* I =142 */
(PID.TID 0000.0001)                 9.004272888354184E+10,      /* I =143 */
(PID.TID 0000.0001)     2 @  9.071865929421040E+10,             /* I =144:145 */
(PID.TID 0000.0001)                 9.004272888354184E+10,      /* I =146 */
(PID.TID 0000.0001)                 8.869721460381146E+10,      /* I =147 */
(PID.TID 0000.0001)                 8.669423991218034E+10,      /* I =148 */
(PID.TID 0000.0001)                 8.405076334249313E+10,      /* I =149 */
(PID.TID 0000.0001)                 8.078707194826852E+10,      /* I =150 */
(PID.TID 0000.0001)                 7.692477203447566E+10,      /* I =151 */
(PID.TID 0000.0001)                 7.248418794208269E+10,      /* I =152 */
(PID.TID 0000.0001)                 6.748097638954340E+10,      /* I =153 */
(PID.TID 0000.0001)                 6.192151981164894E+10,      /* I =154 */
(PID.TID 0000.0001)                 5.579613053300137E+10,      /* I =155 */
(PID.TID 0000.0001)                 4.906782896008959E+10,      /* I =156 */
(PID.TID 0000.0001)                 4.165099566747280E+10,      /* I =157 */
(PID.TID 0000.0001)                 3.336273018972140E+10,      /* I =158 */
(PID.TID 0000.0001)                 2.377787005983833E+10,      /* I =159 */
(PID.TID 0000.0001)     2 @  1.146542574196578E+10,             /* I =160:161 */
(PID.TID 0000.0001)                 2.377787005983833E+10,      /* I =162 */
(PID.TID 0000.0001)                 3.336273018972140E+10,      /* I =163 */
(PID.TID 0000.0001)                 4.165099566747280E+10,      /* I =164 */
(PID.TID 0000.0001)                 4.906782896008959E+10,      /* I =165 */
(PID.TID 0000.0001)                 5.579613053300137E+10,      /* I =166 */
(PID.TID 0000.0001)                 6.192151981164894E+10,      /* I =167 */
(PID.TID 0000.0001)                 6.748097638954340E+10,      /* I =168 */
(PID.TID 0000.0001)                 7.248418794208269E+10,      /* I =169 */
(PID.TID 0000.0001)                 7.692477203447566E+10,      /* I =170 */
(PID.TID 0000.0001)                 8.078707194826852E+10,      /* I =171 */
(PID.TID 0000.0001)                 8.405076334249313E+10,      /* I =172 */
(PID.TID 0000.0001)                 8.669423991218034E+10,      /* I =173 */
(PID.TID 0000.0001)                 8.869721460381146E+10,      /* I =174 */
(PID.TID 0000.0001)                 9.004272888354184E+10,      /* I =175 */
(PID.TID 0000.0001)     2 @  9.071865929421040E+10,             /* I =176:177 */
(PID.TID 0000.0001)                 9.004272888354184E+10,      /* I =178 */
(PID.TID 0000.0001)                 8.869721460381146E+10,      /* I =179 */
(PID.TID 0000.0001)                 8.669423991218034E+10,      /* I =180 */
(PID.TID 0000.0001)                 8.405076334249313E+10,      /* I =181 */
(PID.TID 0000.0001)                 8.078707194826852E+10,      /* I =182 */
(PID.TID 0000.0001)                 7.692477203447566E+10,      /* I =183 */
(PID.TID 0000.0001)                 7.248418794208269E+10,      /* I =184 */
(PID.TID 0000.0001)                 6.748097638954340E+10,      /* I =185 */
(PID.TID 0000.0001)                 6.192151981164894E+10,      /* I =186 */
(PID.TID 0000.0001)                 5.579613053300137E+10,      /* I =187 */
(PID.TID 0000.0001)                 4.906782896008959E+10,      /* I =188 */
(PID.TID 0000.0001)                 4.165099566747280E+10,      /* I =189 */
(PID.TID 0000.0001)                 3.336273018972140E+10,      /* I =190 */
(PID.TID 0000.0001)                 2.377787005983833E+10,      /* I =191 */
(PID.TID 0000.0001)                 1.146542574196578E+10       /* I =192 */
(PID.TID 0000.0001)     ;
(PID.TID 0000.0001) rAs =  /* rAs(1,:,1,:) ( units: m^2 ) */
(PID.TID 0000.0001)                 1.146542574196578E+10,      /* J =  1 */
(PID.TID 0000.0001)                 1.953030837147821E+10,      /* J =  2 */
(PID.TID 0000.0001)                 2.933967873337320E+10,      /* J =  3 */
(PID.TID 0000.0001)                 3.796176706541101E+10,      /* J =  4 */
(PID.TID 0000.0001)                 4.567569462064098E+10,      /* J =  5 */
(PID.TID 0000.0001)                 5.267377164042021E+10,      /* J =  6 */
(PID.TID 0000.0001)                 5.905615583203223E+10,      /* J =  7 */
(PID.TID 0000.0001)                 6.487043381386549E+10,      /* J =  8 */
(PID.TID 0000.0001)                 7.013339442433482E+10,      /* J =  9 */
(PID.TID 0000.0001)                 7.484316069116351E+10,      /* J = 10 */
(PID.TID 0000.0001)                 7.898662143005907E+10,      /* J = 11 */
(PID.TID 0000.0001)                 8.254445101987663E+10,      /* J = 12 */
(PID.TID 0000.0001)                 8.549478360691351E+10,      /* J = 13 */
(PID.TID 0000.0001)                 8.781604517750543E+10,      /* J = 14 */
(PID.TID 0000.0001)                 8.948917519517891E+10,      /* J = 15 */
(PID.TID 0000.0001)                 9.049933392602551E+10,      /* J = 16 */
(PID.TID 0000.0001)                 9.083715262395342E+10,      /* J = 17 */
(PID.TID 0000.0001)                 9.049933392602551E+10,      /* J = 18 */
(PID.TID 0000.0001)                 8.948917519517891E+10,      /* J = 19 */
(PID.TID 0000.0001)                 8.781604517750543E+10,      /* J = 20 */
(PID.TID 0000.0001)                 8.549478360691351E+10,      /* J = 21 */
(PID.TID 0000.0001)                 8.254445101987663E+10,      /* J = 22 */
(PID.TID 0000.0001)                 7.898662143005907E+10,      /* J = 23 */
(PID.TID 0000.0001)                 7.484316069116351E+10,      /* J = 24 */
(PID.TID 0000.0001)                 7.013339442433482E+10,      /* J = 25 */
(PID.TID 0000.0001)                 6.487043381386549E+10,      /* J = 26 */
(PID.TID 0000.0001)                 5.905615583203223E+10,      /* J = 27 */
(PID.TID 0000.0001)                 5.267377164042021E+10,      /* J = 28 */
(PID.TID 0000.0001)                 4.567569462064098E+10,      /* J = 29 */
(PID.TID 0000.0001)                 3.796176706541101E+10,      /* J = 30 */
(PID.TID 0000.0001)                 2.933967873337320E+10,      /* J = 31 */
(PID.TID 0000.0001)                 1.953030837147821E+10       /* J = 32 */
(PID.TID 0000.0001)     ;
(PID.TID 0000.0001) globalArea = /* Integrated horizontal Area (m^2) */
(PID.TID 0000.0001)                 5.098642104278459E+14
(PID.TID 0000.0001)     ;
(PID.TID 0000.0001) // =======================================================
(PID.TID 0000.0001) // End of Model config. summary
(PID.TID 0000.0001) // =======================================================
(PID.TID 0000.0001) 
(PID.TID 0000.0001)  MDS_READ_FIELD: opening global file: U.input.20Lev
(PID.TID 0000.0001)  MDS_READ_FIELD: opening global file: V.input.20Lev
(PID.TID 0000.0001)  MDS_READ_FIELD: opening global file: T.input.20Lev
(PID.TID 0000.0001) // =======================================================
(PID.TID 0000.0001) // Field Initial Temperature at iteration          1
(PID.TID 0000.0001) // CMIN =          2.691107858050743E+02
(PID.TID 0000.0001) // CMAX =          3.112181164521968E+02
(PID.TID 0000.0001) // CINT =          1.559530764708242E+00
(PID.TID 0000.0001) // SYMBOLS (CMIN->CMAX): -abcdefghijklmnopqrstuvwxyz+
(PID.TID 0000.0001) //                  0.0: .
(PID.TID 0000.0001) // RANGE I (Lo:Hi:Step):(   1: 192:   1)
(PID.TID 0000.0001) // RANGE J (Lo:Hi:Step):(  32:   1:  -1)
(PID.TID 0000.0001) // RANGE K (Lo:Hi:Step):(   1:   1:   1)
(PID.TID 0000.0001) // =======================================================
(PID.TID 0000.0001) K =   1
(PID.TID 0000.0001)                I=10      I=20      I=30      I=40      I=50      I=60      I=70      I=80      I=90      I=100     I=110     I=120     I=130     I=140     I=150     I=160     I=170     I=180     I=190
(PID.TID 0000.0001) |--J--|123456789|123456789|123456789|123456789|123456789|123456789|123456789|123456789|123456789|123456789|123456789|123456789|123456789|123456789|123456789|123456789|123456789|123456789|123456789|12
(PID.TID 0000.0001)     32 jjkjjjjjihhhiiiihgfffghijjjjjkkllllkkjiihgghiijjiihgghhhhhhjjjkjjjiiiiiihhhhgggggffeefgghhijjjkklllmnoprstuvxyz+zzyxvutsrqpomllkjklmmnpqrstvwxyzzyxwvutrqponmlllkjjiiiihhgfffggfffffffghhghiiijj
(PID.TID 0000.0001)     31 llkkkkjjjjiiijjjihhgghijjkkkkklmllllkkjihhhjjkkkkkiiiiiihhikkkkkjiihhhgggfffffffffedeeffghiijjjkllmmnopqstuvxyzzzzyxvutsrqponmlljklmmnoqrrtuwxyzzyxxvutrqqponmmljjihhhgggfeeffeeeeeeeefggggghiii
(PID.TID 0000.0001)     30 lllkkkkkkjjjkklkjiihghjjkllllmmmmmlllkjjiijkklllkkkjjjiiiijkkkkljihgggffeeeeeefffedddeefgghiiiijkmmnoopqrtuvwyyzzyywvutssrponmlljklmnnoprstuvxyzzyxxvusrrqpoonmljihhhggffeedeeddeddeeeffffffghhi
(PID.TID 0000.0001)     29 mllllllllkklmnmlkjjiijkllmmmnnnnmmmllkkkkklmmmmllllkkjjjjjkllllmihggfeeddddddeeffedcddeefgghgghjklmooppqstuvwxyzzyxxvuttsrqpommljklmnoopqstuvxyzzyxwvussrrqponlkjihhggffeddddddddddddeeffeefgghh
(PID.TID 0000.0001)     28 mnnnnnnmmmnnoonmlkkjjklmnnnopooonmmmmmmllmnnnnmllmmllkkkklmmmnnniigfeddccccddddeeedccddeffggfghiklmnppqrstuwwxyzzyxwvuttsrqponmljkmnoopqrstuwxyzzyxwvussrrqponljjihgffeeeddddcccddddddeeeeeffggg
(PID.TID 0000.0001)     27 oooopooooooooonmmmmllmnoooopqpooonoonnnmnnnnooonnnnmllllmnooooooihhgeddccccccccccccccddeeffeffgiklmnopqrstuwwxyzzyxwwvutsrqpomlkjlnooppqrstuwxyzzyxwvutssrqponljihgffeeeddddccccccccccdddeeffggg
(PID.TID 0000.0001)     26 pqppppppqqppooonnnnnnnpqqqqqqqpppppppoooooopppqppoonnmnnopqqqqqqihhgfedccbbbbcbbbbccccddeeeeefgiklmnoprsstuwxyzzzyyxwvutsrqpnmljklnoppqqrssuvxyzzyxwvutsrqponlkjihgfeeddccccccccccccccddddefffgh
(PID.TID 0000.0001)     25 qqqpqqrrrqqppppppooopqrrrrrrrqqqpqqqqppqqqqqqrrrqpppoopqqrrsssrriihhfedccbbbbbbbbbbbcccddeeeeffhjklmnoqrstvwxyzzzyyxwvutsrponllkkmnoppqqrstuvwyzzyywvutsrqpnlkkihhfeedddcccbbccbcccccccddddeffgh
(PID.TID 0000.0001)     24 rrrrrsssrrrqqqqqqqqrsssssrrsrrrrrrrrrrrrrrssstssrrrqqqrsstttttttihhgfedcbbbaaaaabbbbbbccddeeeefgijlmmopqrsuwxyzzzzyxwvutsqpommlkjlmoppqqrstuvwyzzzywvutrqpomlkjihhgedddddccbbbbbccbbbbbbccdeefgh
(PID.TID 0000.0001)     23 sssstttsssrrrrrrrrsttttttsstssssssssssssstttuuutttssssttuuuuuuuvgggfedcbbbbaaaaaabbbbbbccdddeefghjklmnoqrsuvwyyzzzyxwvutrqpnmmlkjkmnopqqrstuvwyzzyywvusqponmkjihhhgedcccccbbbbbbbbbbbbbbbbcdefgg
(PID.TID 0000.0001)     22 tttuuutttsssssttttuvuutttttuuttttttttttuuuuvvvvvuuuuuuuvvvvvvvwwgffeddcbbbbaaaaaaabbbbbbcccddeefhiklmnoprsuvwxyzzzyyxvutrqpnmlkjiklmnopqrstuvwxyzyxwutrqponlkjjhggfeddccccbbaaaabbbaaaaabbcdefgg
(PID.TID 0000.0001)     21 vvvvvvvuuttttuuuvvwvvuuuuuuvvvvvvvvvvvvvvvwwwwwwvvvvvvvwwwwwwwxxgffedccbbbaaaaa-aabbaabbbcccdefghijklmoprsuvwxyzzzyxwvutsqpnmkjiijkmnnopqstuwwxyyyxwutrqpnmlkkjhgfeedcccbbbaaaaaaaaaaaaabbcdefff
(PID.TID 0000.0001)     20 wwwwwwwvvvuuvwwwwwxwwvvvvwwwwwwwwwwwwwwwwxxxxxxxxwwwwwxxxxxxxxyyhfedcccbbbaaaaa-aaaaaabbbccddefghhijklnprsuvwxyzzzyxwvutrqonljihijklnoopqrsuwxxyyyxwvtrqpnnmljjhgfeddccbbaaaaaaaaaa--aaabbbcdeef
(PID.TID 0000.0001)     19 yyyxxxxxwwwwxxxxxxxxxxxxxxxxxxxxxxyyxxxxyyyyyyyyyxxxxxyyyyyyyyyzhfddccbbbbaaaa---aaaaabbbcddeeefghiijkmoqstvvwyzzzyxwvtsqpnljihhijklmopprrsuvxxyyyxwvusqponmljjihfedcccbbaaaaaaaaaa--aaabbbcddef
(PID.TID 0000.0001)     18 yyyyyyyyyyyyyyyyyyyyyyyyyyyyyyyyyyyyyyyzzzzzzzzyyyyyyzzzzzzzzzzzhfedccbbbaaaa---aaaaaabbbccdeeeefghijkloqstuvwyzzzyxwusrpnlkjhgghiikmnpqrssuvxyyyxxwvusrppomlkjihfdccccbaaaa-aaaaaa-aaabbbbcddde
(PID.TID 0000.0001)     17 zzzzzyyyyzzzzzzzzzzzzzzzzzzzzzzzzzzzzzzzzzzzzzzzzzzzzzzzzzzzzzzzhgedccbbaaaaa---aaaabaabbbbceefffghikkloqstuvwyzzzyxvtsromlkihgfghijlnoqrstuwxyyyyxwvtsrqpomlkjhgfdccccbaaa----aaaaaaaabbbcccdde
(PID.TID 0000.0001)     16 zzzzzzzzzzzzzzzzzzzzzzzzzzzzzzzzzzzzz++zzzzzzyzzzzzzzzzzzzzzzzzzgfedccbbaaaaa---aaaaaaaabbbcdeefgghjklmoqstuvwyzzzywutsqonmkihgfgghjkmoqrstuwxyyyyxwvtsrqpomlkigffdcccbbaaa-----aaaaaaabbbcccdde
(PID.TID 0000.0001)     15 yyyyyyzzzyyyyyyyyyyyyyyyyyyyyyyyyzzzzzzzyyyyyyyyyyyyyyyyzzzzzzzyffedcccbaaaaa---aaaaaaaabbbccddegghjkmnpqstuvxyzzzxwutrqpomkihgggghikmoqrtuvwxyyyyxwvtsrqponljiggfdcccbbaaa------a-aaaaabbcccdde
(PID.TID 0000.0001)     14 xyyyyyyyyyyxxxxxxyyyxxyxxxxxxyyyyyyyyyyyyyyyxxxxxxxxxxxxxyyyyyyyeeeddccbaaaaa---aaaaaaabcccccddefhhjlmoprstvwxyzzyxwutrqpomkjihgghhjkmoqstuvwxyyyyxwvtsrrponljihgfdccbbaaaaa----aaaaaaabbbcccdde
(PID.TID 0000.0001)     13 xxxwwxxxxxxwwwwwwxxxxxxwwwwwwxxxxxxxxxxxxxxxxxwwwvwwwwwwwwxxxxxxeeeddccbaaaaa----aaaaaabcccccdeffhijlnoqrsuvwxyzzyxvusrqpomkjihhfgijlmoqstuvwxyyyyxwvtssrqomljihgeddccbaaaaaaaaaaaaaabbbbbcccdee
(PID.TID 0000.0001)     12 vvvvvvvwwwwvvvvvwwwwvvvvvvvvvvvwwwwwwxwwwwwwwwvvvvuvvvvvvvwwwwwwfeeddccbbaaaaa---aaaaabbcccccdefgiklmnoqrsuvwxyzzyxvtsrqponljiihegijlmoqstvwxxyzzyxwvttssqomljhhgeddccbaaaaaaaaaaaabbbbbccccddee
(PID.TID 0000.0001)     11 uuuuuuuvvvvuuuuuuvvvuuuuutttuuuuvvvvvwwvvvvvvvuuuuuttuttuuuvvwvvfefeddccbbaaaaa-aaaaaabbcccccdfghjlmnoprstuvwxyzzyxvtsrrponlkjiiefhjlnoqsuvwxyyzzyxwvuttsqomkjhggeddcbbaaaaaaaaaaabbbbccccccddef
(PID.TID 0000.0001)     10 tsssssstttuttttttuuutttttssssstttuuuuuvvuuuutttttttssssssttuuvuugggfedcccbbaaaaaaaaaabbbcddddefhikmnooqrstuvwxyzzywvtssrqpnlkkjjfghjmnpqsuvwxyzzzyxwvvutsqomkihhgeddcbbaaaaaabbabbbbbcccccccdefg
(PID.TID 0000.0001)      9 rrqqqqqrssssssssstttsssrrrrrrrrsssstttuuuttttsssssrrqqrqrrssttuthhgfeddccccbbaaaaabbbbbccdddefghikmnopqrtuuvwxyzzywvttsrqpomkkkjghikmopqsuvwxyzzzyxxwvutrqolkjihfeddccbbbbbbbbbbbbbbcccccdddefgh
(PID.TID 0000.0001)      8 qppooooopqrrrrrrrssrrrqqqqqqqqqqrrrrsssttsssssrrqqpppppppqqrssttihgfeedddccccbbbaaabbbbbcdddfghijkmnpqrstuvwxxyzzyxvutssrqomlllkiijlnopqstvwyyzzzzyxwvutrqolkjigfeedccccbbcccccbbbbcccccdeeefghi
(PID.TID 0000.0001)      7 poonnnmmmnopqqpqqrqqqqppqqpppppppqqqqqrrsrrrrqpppponnnoooopqqrssihggfeedddcccccbbbbbbbbbcddefhijklmnpqsstuvwxyzzzyxvuttsrqpnmmlkiklmnpqrstvxyzz+zzyxwvutrpnmlkjhgfeedccccccccccbbcccccddeeffgghi
(PID.TID 0000.0001)      6 oonmmmlllllnoopppppppooopppopppoooppoppqqqqpoooooonmlllnnnooppqrihhggfeeddccccccccccbccccddefgijlmmnprstuuvwxyzzzyxvuttsrqpommmljkmnopqrsuvxyzz++zyxxwvtrpomlljihffeeddddddddccccdddddeeefffgghj
(PID.TID 0000.0001)      5 nnmmllkkkkjlmnooooooonnnooonoooonnooonnoooonnmmnnnmlkkklmmnnnoopiihhggfeedddddddddddccccddeeeghjlmnnoqstuvwwxyzzzyxwvutsrrqpnmmlkkmnoqrstuvxyz+++zyxxwvtrponmlkjihgfffeeefffeddddddeeeeeefggggij
(PID.TID 0000.0001)      4 llllkkjjjjijklmmmlmmmmllmmnnnnnnnmnnnmmmmmlllllkllllkjjjllmmnmmniihhhhgffeeeeeeeeeeedddddeeefgijklnnoqstuvwxxyzzzyywvutsrrqpnmmlkklnpqrstuvxyz+++zyxxwusqpomllkjjihhhgffgggfeeedddeeeefffffgghij
(PID.TID 0000.0001)      3 lllkjjjjihhhjkjjjjjkkkkkkklmmmlllllllllllkkkkjjiijjjjiiiklllmmlmjjiiihhggfeffffeeefeeeeeeefghijjklmnoprtuvwxyyzzzyyxwvtssrqpnmmlkklnpqrstuwxyz+++zyxwvtsqpomllkkjjjihhghhhggfeeddeefefhggggghiij
(PID.TID 0000.0001)      2 lkkkjjijihgghiiiiiijjjjjjjkkkkkkkkkjjkkjjjjiihhggghhhhhijkkkklllkjjjiihhggffgggffffeefffgfghijjjkklmnprtuvwxyzzzzyyxwvutssrpnmmkkklnoqrssuvxyz+++zyxwutsqponmllkkjjjihhhiihhgfeeeeffghihhhhiijjk
(PID.TID 0000.0001)      1 kkjjiiiiihgfghhhhgghhhhiiiijjjjjjjiihiiiihhgggfffffggghhijkjjkkkkkkjjiihhgfgghihgggfffgggggijjjjkklmnoqsuvwxyzzzzyyxwvutssrpnmlkkllmopqrstuwyzz++zyxwutsrqpnmllkkkkkjiiijjihhgfffffghiiijjjkkkkk
(PID.TID 0000.0001) // =======================================================
(PID.TID 0000.0001) // END OF FIELD                                          =
(PID.TID 0000.0001) // =======================================================
(PID.TID 0000.0001) 
(PID.TID 0000.0001)  MDS_READ_FIELD: opening global file: RH.input.20Lev
(PID.TID 0000.0001) // =======================================================
(PID.TID 0000.0001) // Field Initial Salinity at iteration          1
(PID.TID 0000.0001) // CMIN =          6.688321003390099E-04
(PID.TID 0000.0001) // CMAX =          3.009632860529917E-02
(PID.TID 0000.0001) // CINT =          1.089907277961487E-03
(PID.TID 0000.0001) // SYMBOLS (CMIN->CMAX): -abcdefghijklmnopqrstuvwxyz+
(PID.TID 0000.0001) //                  0.0: .
(PID.TID 0000.0001) // RANGE I (Lo:Hi:Step):(   1: 192:   1)
(PID.TID 0000.0001) // RANGE J (Lo:Hi:Step):(  32:   1:  -1)
(PID.TID 0000.0001) // RANGE K (Lo:Hi:Step):(   1:   1:   1)
(PID.TID 0000.0001) // =======================================================
(PID.TID 0000.0001) K =   1
(PID.TID 0000.0001)                I=10      I=20      I=30      I=40      I=50      I=60      I=70      I=80      I=90      I=100     I=110     I=120     I=130     I=140     I=150     I=160     I=170     I=180     I=190
(PID.TID 0000.0001) |--J--|123456789|123456789|123456789|123456789|123456789|123456789|123456789|123456789|123456789|123456789|123456789|123456789|123456789|123456789|123456789|123456789|123456789|123456789|123456789|12
(PID.TID 0000.0001)     32 eeeeeeeedddddddddcccccdddddddccdddddcccbbbbcccccbbbbbbbbbccdddeeddddddddddccccccccbbbbccccddeeeeffffghijklnqtwxyxwuspnmlkjihfffeeefffghjjkmortwxxwvtrpnmkhgffffeeedddddddcccccccccccccdddddddddd
(PID.TID 0000.0001)     31 eeeeeeeeeedddeeddcccccdddeeeddccddddcccccbddcccbbbbbbbbcbcdeeeeedddddddcccccccccccbbbcccccddedeefffggghjklnpsvwxxwurpnmlkjihgfffeeffgghijkloqtwxyxvsqpnlkjhgfffeedddddddcccccccccccccccccccddddd
(PID.TID 0000.0001)     30 fffeeeeeeeeeeefedddccdddeeeeeddccdddcccccceeecceeeddccccbcdeeeeeddddccccccbbbbcccbbbbbccccdddddeefgghhijkmnpsuwxxvtrpomlkjihggffeeffgghijkmnqtxyyxvtqnlkkkjhgffeedddddcccccccccccccccccccccccddd
(PID.TID 0000.0001)     29 fffffffffeefffeeeedccdeeeeefeedcccddcccddddgggfeeeeedccdcdeeffffdddcccbbbbbbbbcccbbbbbbccccdddddefghhiijkmoprtvwwvtrponmlkihhgffeefgghhijkmnqtxzyxvtqnlkjjjigfeeeddddccccbbbbbbbbbbbbcccccccccdd
(PID.TID 0000.0001)     28 gggggggfffggggfeedcccddddddffedccccddddddefeggfffffeeddddeffggggdddccbbbbbbbbbbbbbbbbbbcccccccddefghiijkkmoqstvwwvtrqonmlkjihggfeffghhiijkmorvyzywusqnlkjjihgfeddddcccccccbcbbbbbbbbbbcccccccccd
(PID.TID 0000.0001)     27 hhhhhhggghggfeedcccddddddddefeddccceeeddeffgfggggggfedfffgghhhhhdddcccbbbbbbbbbbbbbbbbbcccccccddefgghijklmoqsuvwvvtrqonmlkjihgfeefghhiijklmoswzzywusqnlkjihhgfdddddccccccbbbbbbbbbbbbbbccccccccd
(PID.TID 0000.0001)     26 iiihhhhiihgfedcccdddcddcccdeedeedcdffffdeffghgiiiiggfegghhiiijiiddddccbbbbbbbbbbbbbbbbbccccccccdefgghikllmoqsuwwvvtsqpnmlkjhgffeefghhijjkkmorw++ywuspnmlkihgfeddcccccccbbbbbbbbbbbbbbbbccccccccd
(PID.TID 0000.0001)     25 jjiiiiiiihfeedcccddddddccccddeeddcdefggggghhiijjjjhhgihhijkkkkjkedddccbbbbbbbbbbbbbbabbbbccccccdeffghijklmoqsuwwwvusqpnmljihgffeegghhiijklmorws+ywurqqlligigeddccccccbbbbbbbbbbbbbbbbbbbbbcccccd
(PID.TID 0000.0001)     24 jjjjjjjihgfeddcccddddeecccddeffedcdefghhiijjkllkkkiihkjjlmmmmllmddddccbbbbbbabaaabbaabbbbbccccccdeffghijklnqsuvwwvutrpnmkjhhgfffefghiiijklmorvwxwvtsoqjhgggeddccccccbbbbbbbbbbbbbbbbbbbbbbbccccd
(PID.TID 0000.0001)     23 lkkkkkjihgfedddddeffedddddefhiiffeefhiijjjklmmmmllnnmmlmnonnnnnodcccccbbbaaaaaaaaabaabbbbbbbccccdeefggijklnpruvwwvvtrpnlkjhhgfffefghhiijklnonqywwuutmkjgeggfeedcbcccbbbbbbbbaaa-aaaaaaabbbbccccd
(PID.TID 0000.0001)     22 mmmmllkjhgggfffffghgfefgggghiikkhgiijkklllnoonnnmmmnnoooppppppqqcccccbbbbaaaaaaaaabaaabbabbbccccddeffghiklnoqtvwwwvtrpnlkjhhgfeedefghhijjlmosrstwvuokkgeeeddeeddccbbbbbbbbbaaaaaaa--aaabbbbccccd
(PID.TID 0000.0001)     21 ooonnmlkjiijjjjjjkkjiijkkkklmmklmlklmnnnoopqqqppponooprrrrqqqrssdcccbbbbbaaaaaaaaaaaaabbbbbbbcccddeefghiklnoqsuwwwvtrpnmkjhhgfeddeefghhijkmoptyutsqnjggffffeeeeedccccbbbbbaaaaaaaaa---aabbbbcccc
(PID.TID 0000.0001)     20 rrrqpoonlllnoonnnoppnmmooooqqqompoppppqqqrstssssrqqqqqrsssssstttdccbbbbbba-aaaaaaaaaaabbbbbbccccddddefgiklnoqsuvwwvtrpnmkihgfeddddeeghhiikloqstwzrskihhggfffeeddddccbbbbbaaaaaaaaaaaaaaabbbbbccc
(PID.TID 0000.0001)     19 ttttsrqqppppssrqqrsutsrssrstssqtrrrrsssstuuuuutttssttttuuuuuuuuudcbbbbbbbaaaaaaaaaaaaababbbccccccdddeefhjlnoqruvwwvtromkjhgfedddddeffggijkmorsssspnkjjihhgggfeeddccbbbbbaaaaaaaaaaaaaaaaabbbbbcc
(PID.TID 0000.0001)     18 vvvuutttttttuutttstwwvvvvwxxtswutttuuuuvvvvvuuutttvwvvvvxxwvvvvvcccbbbbbbaaaaaaaaaaaaaabbbbccccccdddeefhjlmoprtvwwvtqnkjigfeddcccddeeghijlnppstsqpmlkjiihhhgfeeddccbbbbbbaaaaaaaaaaaa-aaabbbbbcc
(PID.TID 0000.0001)     17 wxxwwvvvvvvvvvvvvuvxyyxxy+uuutwvvuvvwwwwwvvuuuuuuuuxxwvy+ywvvvvvdccbbbbbbbbaaaaaaaaaaaabbbbbccccccddeefhjlmopruvvvusomkjhgfeddccccddeghiklonqstsrpnllkjiihhgfeeddcbbbbbbaaaaaaaaaaaaaa-aabbbbbcc
(PID.TID 0000.0001)     16 wxxxxwwwvvvvuuuuuuuxyyyyzvvvvuwwvvwwwxwwvvuuuuuuuvuvxwvxyxwvvuvwdccbbbbbbbbaaaaaaaaaaaaaaabbbcccccddefghjlmopruvvvtromkihgfeddcccccddegijmoorstsrqomlkjiihhgfeddcccbbbbbaaaaaaa-aaaaaaaaabbbbbcc
(PID.TID 0000.0001)     15 wxwwwwwwvvuttsrrrrstwxxxxtttttwvvvvvwwwvuuuttttttuuuuvvvvvvvuuutcccbbbbbbbbaaaaaaaaaaaaaaabbbbcccdddefgijlmoprtvvvtqomkihgfedddccccddegikmlorsttsronlkjjiihgfeddcccbbbbbaaaaaaaa--aaaa-aabbbbbbc
(PID.TID 0000.0001)     14 vwwwvuvvutsrqpooopppsvvvvqqqrxvtttuuuvuttttttsssrrsstsssstttttttbccbbbbbaabaaaaaaaaaaaaababbbbbccdddfghiklnoprtvvusqnljihgfeedddcccdeefikjlorsttsrpnmkjjjihgfedddccbbbbbaaaaaaaa-aaaaa-aabbbbbbc
(PID.TID 0000.0001)     13 tuuusssssrqponmmmmmmoooooooooussrsssttsssssssrrqqpqqqqpppqrrrrrrbccbbbbaaabaaaaaaaaaaaaaabbbbbcccddefghiklnoqrtvvuspnljihggeedddbbcceffhjkmprttttsqomlkkkihgfeddcccbbbbbaaaaaaaaaaaaaaaabbbbbbcc
(PID.TID 0000.0001)     12 rssqpppppponmmllkkjkommmmmmmsrqqqqqqrrrqqqqqqqppoooooonnnnopppppcccbbbbbbabbaaaaaaaaaaaabbbbbbcccdeffghjklnoqstvvurpmljihggfeeddbccddeghjknqstuutsqomllkkjhffeddccbbbbbbaaaaaaaaaaaaaaaabbbbbccc
(PID.TID 0000.0001)     11 pppnnnnnnnnmlllkjjihkkkkkkkkponnnppoppppooooonnnnmmmllllllllmmmmccccbbbbbbbbaaaaaaaaaabbbbbbbbccdefgghijlmnoqsuvvuromljjhhgfeeedbbcdefgjiknqsuuuutrpnmmlljhfeeddcccbbbbbbaaaaaaaaaaaaaabbbbbbccc
(PID.TID 0000.0001)     10 nnmlkklmmmmlkkkjjjiggiimliinmlklnonnnnoonnmmmllllllkkkjjjijjklkkcdccbbbbbbbaaaaaaaaaabbbabbbbccddefgghiklmnprsuvvuromlkjihgfeeeecccdehghiknqtuvvutrponnmkihfedddcccbbbbbbbaaaaaaaaaaaaabbbbbbccc
(PID.TID 0000.0001)      9 lkjiiijjkkkkkjjjjiigfgggjhhkkiijmmlllmmnmmlllkkkkkjjiiihhhghiiiiccccbbbbbbbbbaaaaaaaaaabbbbbbccddefghijklnoprsuvvuromlkjihgfeeeeccceegghiknrtvvvvusqponmkihfeeddccbbbbbbbbbbbbbbabaabbbbbbbbccdd
(PID.TID 0000.0001)      8 jhhhhgghijjkjjiiiiihfgggggkjihhhkjjjkkllllkkkkjjjihhhhhgfgggghhhdcccbbbbbbbbbbaaaaaaaaabbbbbccddeefghjjklnoqrtuvvuronmkjjhgfeeeeddddefghiknruvwwwutrponmkihfeeddcccbbbbbbbbbbbbbbbbbbbbbcccccddd
(PID.TID 0000.0001)      7 hgggggffgghiiiiiiihgggfgggghhhhhiiiiijjkkkjjjihihhggffggfffffgggdccccbbbbbbbbbbbaaaabbbbbbbbccdeeffghjklmnoqstuvvurpnmlkjhhgfffeddeefghhjloruvxxwvtsqpnmkigffeddccccbbbbbbbbbbbbbbbbbbbbcccccddd
(PID.TID 0000.0001)      6 gggffffffffghhhhhhhhffhfggihhhhhhhhhhhhijjihhhghhggffeeffeeeefffdccdcbbbbbbbbbbbbbbbbbbbbbbbccddefgghjkmnoprstvvvuspnmlkiihgffffdeefghiijlosuwxyxvusqpomkihgffeddccccccbbcccbbbbbbbccccccccccdde
(PID.TID 0000.0001)      5 fffffeeeeeeegghhhghhgfefffgfggggggghggghhhgggggggggfeeeeeeeeeeeedccdcbbbbbbbbbbbbbbbbbbbbbbbcccdefgghjkmnoprstvwvutqomlkihgfefffeeffghijkmosuwyyxwusrqomjihgffeeddcccccccccccbbbbcccccccccccddde
(PID.TID 0000.0001)      4 fffeeeeeedddeffffffgffeeeefffgfffffggfffgffffffeffffeedeeeeeeeeeddddcbbbbbbbbbbcbcbbbbbbbbbbccdeefgghikmnpqrtuvvvvxspnljihgfeeeeeefghiijlmpsvwyyywutrpnljihgfeeeedddddcccccccccbbcccccccccccddde
(PID.TID 0000.0001)      3 eeeeedddddddeeeeeeeeffeeeefffffffffffffffeeeeeeddeeeedddeeeeeeeedddcbbbbbbbbbccccccbbbbbbbbbcddeeefggiklnprstuvvvyrspnkihgfeeeeeeeeghijjlnpsuwyzyxvtrpmljihgffeeeeedddddddddccccbcccccddddcddddd
(PID.TID 0000.0001)      2 eeeeedddddccdddddddeeeeeeeeeeeeeeeeeeeeeeeeeddddcdddddddeeeeeeeedddcbbbbbbbbccccbbbbbbbbbbccdddeeeffghjlnoqstuvvvysrpmkigffeeeeeeeeghiijkmpsuwyzyxvsqomkjihgfffeeeeedddddedddccccccccdddddddddde
(PID.TID 0000.0001)      1 eeeeddeeddcccddddcdddddddddeeeeddddddddedddddcccccccccdddeeeeeeddddcbbbbbbbbccdcbbbbbbbbbbbdddeeeeefghikmoqstuvvvvtrpnjihgfeeeeeeeffghijkloruwyyywuspnmljihgfffeeeeeeddeeeeddccccccdddeeeeeeeeed
(PID.TID 0000.0001) // =======================================================
(PID.TID 0000.0001) // END OF FIELD                                          =
(PID.TID 0000.0001) // =======================================================
(PID.TID 0000.0001) 
(PID.TID 0000.0001) Start initial hydrostatic pressure computation
(PID.TID 0000.0001) Pressure is predetermined for buoyancyRelation ATMOSPHERIC
(PID.TID 0000.0001) 
(PID.TID 0000.0001)  write diagnostics summary to file ioUnit:      6
Iter.Nb:         0 ; Time(s):  0.0000000000000E+00
------------------------------------------------------------------------
2D/3D diagnostics: Number of lists:     3
------------------------------------------------------------------------
listId=   1 ; file name: SHfields
 nFlds, nActive,       freq     &   phase        , nLev                 
  27  |  27  |         0.060000         0.000000 |   1
 levels:   1
 diag#| name   | ipt  | iMate| kLev| count | mate.C|                    
  210 |RADSWT  |    1 |    0 |   1 |     0 |
  233 |OSR     |    2 |    0 |   1 |     0 |
  199 |OLR     |    3 |    0 |   1 |     0 |
  372 |PLALBEDO|    4 |    0 |   1 |     0 |
  263 |CLDFRC  |    5 |    0 |   1 |     0 |
  183 |PREACC  |    6 |    0 |   1 |     0 |
  184 |PRECON  |    7 |    0 |   1 |     0 |
  214 |EVAP    |    8 |    0 |   1 |     0 |
  167 |RADSWG  |    9 |    0 |   1 |     0 |
  343 |ALBNIRDF|   10 |    0 |   1 |     0 |
  341 |ALBVISDF|   11 |    0 |   1 |     0 |
  208 |LWGDOWN |   12 |    0 |   1 |     0 |
  198 |LWGUP   |   13 |    0 |   1 |     0 |
  162 |EFLUX   |   14 |    0 |   1 |     0 |
  161 |HFLUX   |   15 |    0 |   1 |     0 |
  267 |T2M     |   16 |    0 |   1 |     0 |
  268 |Q2M     |   17 |    0 |   1 |     0 |
  163 |UFLUX   |   18 |   19 |   1 |     0 |     0 |
  164 |VFLUX   |   19 |   18 |   1 |     0 |     0 |
  269 |U10M    |   20 |   21 |   1 |     0 |     0 |
  270 |V10M    |   21 |   20 |   1 |     0 |     0 |
  241 |PS      |   22 |    0 |   1 |     0 |
  234 |OSRCLR  |   23 |    0 |   1 |     0 |
  200 |OLRCLR  |   24 |    0 |   1 |     0 |
  244 |SWGCLR  |   25 |    0 |   1 |     0 |
  201 |LWGCLR  |   26 |    0 |   1 |     0 |
   86 |RSURF   |   27 |    0 |   1 |     0 |
------------------------------------------------------------------------
listId=   2 ; file name: MLfields
 nFlds, nActive,       freq     &   phase        , nLev                 
   8  |   8  |         0.060000         0.000000 |  17
 interp: 1.000E+05 9.250E+04 8.500E+04 7.000E+04 6.000E+04 5.000E+04 4.000E+04 3.000E+04 2.500E+04 2.000E+04
 interp: 1.500E+04 1.000E+04 7.000E+03 5.000E+03 3.000E+03 2.000E+03 1.000E+03
 diag#| name   | ipt  | iMate| kLev| count | mate.C|                    
   29 |UVEL    |   28 |   48 |  20 |     0 |     0 |
   30 |VVEL    |   48 |   28 |  20 |     0 |     0 |
   63 |PHIHYD  |   68 |    0 |  20 |     0 |
   31 |WVEL    |   88 |    0 |  20 |     0 |
   27 |SALT    |  108 |    0 |  20 |     0 |
   28 |RELHUM  |  128 |    0 |  20 |     0 |
   85 |RCENTER |  148 |    0 |  20 |     0 |
   26 |THETA   |  168 |    0 |  20 |     0 |
------------------------------------------------------------------------
listId=   3 ; file name: MFfields
 nFlds, nActive,       freq     &   phase        , nLev                 
  17  |  17  |         0.060000         0.000000 |  17
 interp: 1.000E+05 9.250E+04 8.500E+04 7.000E+04 6.000E+04 5.000E+04 4.000E+04 3.000E+04 2.500E+04 2.000E+04
 interp: 1.500E+04 1.000E+04 7.000E+03 5.000E+03 3.000E+03 2.000E+03 1.000E+03
 diag#| name   | ipt  | iMate| kLev| count | mate.C|                    
   34 |UVELSQ  |  188 |  208 |  20 |     0 |     0 |
   35 |VVELSQ  |  208 |  188 |  20 |     0 |     0 |
   32 |THETASQ |  228 |    0 |  20 |     0 |
   36 |WVELSQ  |  248 |    0 |  20 |     0 |
   64 |PHIHYDSQ|  268 |    0 |  20 |     0 |
   33 |SALTSQ  |  288 |    0 |  20 |     0 |
   37 |UV_VEL_C|  308 |  308 |  20 |     0 |     0 |
   39 |WU_VEL  |  328 |    0 |  20 |     0 |
   40 |WV_VEL  |  348 |    0 |  20 |     0 |
   51 |VVELTH  |  368 |  468 |  20 |     0 |     0 |
   52 |WVELTH  |  388 |    0 |  20 |     0 |
   54 |VVELSLT |  408 |  448 |  20 |     0 |     0 |
   55 |WVELSLT |  428 |    0 |  20 |     0 |
   53 |UVELSLT |  448 |  408 |  20 |     0 |     0 |
   50 |UVELTH  |  468 |  368 |  20 |     0 |     0 |
   56 |UVELPHI |  488 |  508 |  20 |     0 |     0 |
   57 |VVELPHI |  508 |  488 |  20 |     0 |     0 |
------------------------------------------------------------------------
Global & Regional Statistics diagnostics: Number of lists:     1
------------------------------------------------------------------------
listId=   1 ; file name: GTfields
 nFlds, nActive,       freq     &   phase        |                      
  26  |  26  |         1.000000         0.000000 |
 Regions:   0
 diag#| name   | ipt  | iMate|    Volume   |   mate-Vol. |              
  210 |RADSWT  |    1 |    0 | 0.00000E+00 |
  233 |OSR     |    2 |    0 | 0.00000E+00 |
  199 |OLR     |    3 |    0 | 0.00000E+00 |
  372 |PLALBEDO|    4 |    0 | 0.00000E+00 |
  263 |CLDFRC  |    5 |    0 | 0.00000E+00 |
  183 |PREACC  |    6 |    0 | 0.00000E+00 |
  184 |PRECON  |    7 |    0 | 0.00000E+00 |
  214 |EVAP    |    8 |    0 | 0.00000E+00 |
  167 |RADSWG  |    9 |    0 | 0.00000E+00 |
  343 |ALBNIRDF|   10 |    0 | 0.00000E+00 |
  341 |ALBVISDF|   11 |    0 | 0.00000E+00 |
  208 |LWGDOWN |   12 |    0 | 0.00000E+00 |
  198 |LWGUP   |   13 |    0 | 0.00000E+00 |
  162 |EFLUX   |   14 |    0 | 0.00000E+00 |
  161 |HFLUX   |   15 |    0 | 0.00000E+00 |
  267 |T2M     |   16 |    0 | 0.00000E+00 |
  268 |Q2M     |   17 |    0 | 0.00000E+00 |
  163 |UFLUX   |   18 |    0 | 0.00000E+00 |
  164 |VFLUX   |   19 |    0 | 0.00000E+00 |
  269 |U10M    |   20 |    0 | 0.00000E+00 |
  270 |V10M    |   21 |    0 | 0.00000E+00 |
  241 |PS      |   22 |    0 | 0.00000E+00 |
  234 |OSRCLR  |   23 |    0 | 0.00000E+00 |
  200 |OLRCLR  |   24 |    0 | 0.00000E+00 |
  244 |SWGCLR  |   25 |    0 | 0.00000E+00 |
  201 |LWGCLR  |   26 |    0 | 0.00000E+00 |
------------------------------------------------------------------------
  In fizhi_init_vars: Beginning of New Experiment 
  Cold Start: Zero out Turb second moments 
  Initialize fizhi arrays that will be on pickup 
  Cold Start: Zero out Turb second moments 
  Initialize fizhi arrays that will be on pickup 
  Cold Start: Zero out Turb second moments 
  Initialize fizhi arrays that will be on pickup 
  Cold Start: Zero out Turb second moments 
  Initialize fizhi arrays that will be on pickup 
  Cold Start: Zero out Turb second moments 
  Initialize fizhi arrays that will be on pickup 
  Cold Start: Zero out Turb second moments 
  Initialize fizhi arrays that will be on pickup 
(PID.TID 0000.0001) // =======================================================
(PID.TID 0000.0001) // Model current state
(PID.TID 0000.0001) // =======================================================
(PID.TID 0000.0001) 
(PID.TID 0000.0001) // =======================================================
(PID.TID 0000.0001) // Begin MONITOR dynamic field statistics
(PID.TID 0000.0001) // =======================================================
(PID.TID 0000.0001) %MON time_tsnumber                =                     0
(PID.TID 0000.0001) %MON time_secondsf                =   0.0000000000000E+00
(PID.TID 0000.0001) %MON dynstat_eta_max              =   0.0000000000000E+00
(PID.TID 0000.0001) %MON dynstat_eta_min              =   0.0000000000000E+00
(PID.TID 0000.0001) %MON dynstat_eta_mean             =   0.0000000000000E+00
(PID.TID 0000.0001) %MON dynstat_eta_sd               =   0.0000000000000E+00
(PID.TID 0000.0001) %MON dynstat_eta_del2             =   0.0000000000000E+00
(PID.TID 0000.0001) %MON dynstat_uvel_max             =   4.1689124714060E+01
(PID.TID 0000.0001) %MON dynstat_uvel_min             =  -3.6855012364959E+01
(PID.TID 0000.0001) %MON dynstat_uvel_mean            =   1.7037315637278E+00
(PID.TID 0000.0001) %MON dynstat_uvel_sd              =   7.8762494662000E+00
(PID.TID 0000.0001) %MON dynstat_uvel_del2            =   3.1526598440943E-01
(PID.TID 0000.0001) %MON dynstat_vvel_max             =   3.8279724931338E+01
(PID.TID 0000.0001) %MON dynstat_vvel_min             =  -3.3449826571863E+01
(PID.TID 0000.0001) %MON dynstat_vvel_mean            =   1.6728858593484E+00
(PID.TID 0000.0001) %MON dynstat_vvel_sd              =   7.8521609366093E+00
(PID.TID 0000.0001) %MON dynstat_vvel_del2            =   3.1834566062266E-01
(PID.TID 0000.0001) %MON dynstat_wvel_max             =   2.0651102168184E-01
(PID.TID 0000.0001) %MON dynstat_wvel_min             =  -1.4850774831547E-01
(PID.TID 0000.0001) %MON dynstat_wvel_mean            =   1.5920826516130E-18
(PID.TID 0000.0001) %MON dynstat_wvel_sd              =   2.6334297146946E-02
(PID.TID 0000.0001) %MON dynstat_wvel_del2            =   6.9006579166993E-03
(PID.TID 0000.0001) %MON dynstat_theta_max            =   4.8585539276299E+02
(PID.TID 0000.0001) %MON dynstat_theta_min            =   2.6911078580507E+02
(PID.TID 0000.0001) %MON dynstat_theta_mean           =   3.2503096578545E+02
(PID.TID 0000.0001) %MON dynstat_theta_sd             =   4.7714841923137E+01
(PID.TID 0000.0001) %MON dynstat_theta_del2           =   9.9343548146078E-02
(PID.TID 0000.0001) %MON dynstat_salt_max             =   3.0096328605299E-02
(PID.TID 0000.0001) %MON dynstat_salt_min             =   0.0000000000000E+00
(PID.TID 0000.0001) %MON dynstat_salt_mean            =   2.6642499910156E-03
(PID.TID 0000.0001) %MON dynstat_salt_sd              =   4.4400329333276E-03
(PID.TID 0000.0001) %MON dynstat_salt_del2            =   3.6805312667659E-05
(PID.TID 0000.0001) %MON advcfl_uvel_max              =   3.1499896007934E-02
(PID.TID 0000.0001) %MON advcfl_vvel_max              =   3.5319712134133E-02
(PID.TID 0000.0001) %MON advcfl_wvel_max              =   4.9033087854809E-03
(PID.TID 0000.0001) %MON advcfl_W_hf_max              =   4.9033087854809E-03
(PID.TID 0000.0001) %MON pe_b_mean                    =   0.0000000000000E+00
(PID.TID 0000.0001) %MON ke_max                       =   8.6575910092947E+02
(PID.TID 0000.0001) %MON ke_mean                      =   6.4696492683937E+01
(PID.TID 0000.0001) %MON ke_vol                       =   5.1537074390047E+19
(PID.TID 0000.0001) %MON vort_r_min                   =  -4.8334073392882E-05
(PID.TID 0000.0001) %MON vort_r_max                   =   5.4390382265555E-05
(PID.TID 0000.0001) %MON vort_a_mean                  =   1.3580915090222E-19
(PID.TID 0000.0001) %MON vort_a_sd                    =   8.5822836919601E-05
(PID.TID 0000.0001) %MON vort_p_mean                  =   1.3580915090222E-19
(PID.TID 0000.0001) %MON vort_p_sd                    =   8.5822836919601E-05
(PID.TID 0000.0001) %MON surfExpan_theta_mean         =   3.8975999242293E-17
(PID.TID 0000.0001) %MON surfExpan_salt_mean          =   1.5437467709100E-21
(PID.TID 0000.0001) %MON surfExpan_Heat_mean          =   3.9724034373426E-15
(PID.TID 0000.0001) %MON En_Budget_T2PE_mean          =  -2.2904633417966E-01
(PID.TID 0000.0001) // =======================================================
(PID.TID 0000.0001) // End MONITOR dynamic field statistics
(PID.TID 0000.0001) // =======================================================

 Low-Level Clouds are Grouped between levels:           30 and            2
 Mid-Level Clouds are Grouped between levels:            1 and            2


 Warning!
 Turbulent Kinetic Energy has not been initialized.
 Cold-Start will use Level 2.0 Turbulence.


 Top Level Allowed for Convection :            2
           Highest Sub-Cloud Level:            2
           Lowest  Sub-Cloud Level:            3
     Total Number of Random Clouds:           14

 Creating Rand Numb Array in RNDCLOUD, iseed=           0
 IRAS:            1  IRAS0:            0 indx:            0
 Current Date     20040321 Current Time          200
 cg2d: Sum(rhs),rhsMax =   1.09139364212751E-11  3.41494610617228E+02
(PID.TID 0000.0001)                    cg2d_init_res =    4.81516248542290E+03
(PID.TID 0000.0001)                       cg2d_iters =     6
(PID.TID 0000.0001)                         cg2d_res =    9.50688763485652E-11
(PID.TID 0000.0001) // =======================================================
(PID.TID 0000.0001) // Begin MONITOR dynamic field statistics
(PID.TID 0000.0001) // =======================================================
(PID.TID 0000.0001) %MON time_tsnumber                =                     1
(PID.TID 0000.0001) %MON time_secondsf                =   1.2000000000000E+02
(PID.TID 0000.0001) %MON dynstat_eta_max              =   1.1335694243200E+01
(PID.TID 0000.0001) %MON dynstat_eta_min              =  -6.8881281664859E+00
(PID.TID 0000.0001) %MON dynstat_eta_mean             =   4.3463856389035E-17
(PID.TID 0000.0001) %MON dynstat_eta_sd               =   1.0803202511142E+00
(PID.TID 0000.0001) %MON dynstat_eta_del2             =   3.1363632492624E-01
(PID.TID 0000.0001) %MON dynstat_uvel_max             =   4.1671168667721E+01
(PID.TID 0000.0001) %MON dynstat_uvel_min             =  -3.6890544564903E+01
(PID.TID 0000.0001) %MON dynstat_uvel_mean            =   1.7031695895167E+00
(PID.TID 0000.0001) %MON dynstat_uvel_sd              =   7.8744904478543E+00
(PID.TID 0000.0001) %MON dynstat_uvel_del2            =   3.1488427318708E-01
(PID.TID 0000.0001) %MON dynstat_vvel_max             =   3.8266982510448E+01
(PID.TID 0000.0001) %MON dynstat_vvel_min             =  -3.3384654650142E+01
(PID.TID 0000.0001) %MON dynstat_vvel_mean            =   1.6734022725030E+00
(PID.TID 0000.0001) %MON dynstat_vvel_sd              =   7.8532911577221E+00
(PID.TID 0000.0001) %MON dynstat_vvel_del2            =   3.1812214700009E-01
(PID.TID 0000.0001) %MON dynstat_wvel_max             =   2.0525897446055E-01
(PID.TID 0000.0001) %MON dynstat_wvel_min             =  -1.6045751110391E-01
(PID.TID 0000.0001) %MON dynstat_wvel_mean            =  -9.5524959096780E-19
(PID.TID 0000.0001) %MON dynstat_wvel_sd              =   2.6352800457149E-02
(PID.TID 0000.0001) %MON dynstat_wvel_del2            =   6.8483566626089E-03
(PID.TID 0000.0001) %MON dynstat_theta_max            =   4.8595561732146E+02
(PID.TID 0000.0001) %MON dynstat_theta_min            =   2.6911257170676E+02
(PID.TID 0000.0001) %MON dynstat_theta_mean           =   3.2504145780627E+02
(PID.TID 0000.0001) %MON dynstat_theta_sd             =   4.7752604766539E+01
(PID.TID 0000.0001) %MON dynstat_theta_del2           =   9.9407498063683E-02
(PID.TID 0000.0001) %MON dynstat_salt_max             =   2.9557606786642E-02
(PID.TID 0000.0001) %MON dynstat_salt_min             =  -1.3790984241921E-10
(PID.TID 0000.0001) %MON dynstat_salt_mean            =   2.6643102856187E-03
(PID.TID 0000.0001) %MON dynstat_salt_sd              =   4.4270063322099E-03
(PID.TID 0000.0001) %MON dynstat_salt_del2            =   3.8284207247288E-05
(PID.TID 0000.0001) %MON advcfl_uvel_max              =   3.1565067054170E-02
(PID.TID 0000.0001) %MON advcfl_vvel_max              =   3.5318811881498E-02
(PID.TID 0000.0001) %MON advcfl_wvel_max              =   4.8735807153276E-03
(PID.TID 0000.0001) %MON advcfl_W_hf_max              =   4.8735807153276E-03
(PID.TID 0000.0001) %MON pe_b_mean                    =   4.7001227217849E-06
(PID.TID 0000.0001) %MON ke_max                       =   8.6477641190713E+02
(PID.TID 0000.0001) %MON ke_mean                      =   6.4691421818787E+01
(PID.TID 0000.0001) %MON ke_vol                       =   5.1537074390047E+19
(PID.TID 0000.0001) %MON vort_r_min                   =  -4.8331686059243E-05
(PID.TID 0000.0001) %MON vort_r_max                   =   5.4416633322161E-05
(PID.TID 0000.0001) %MON vort_a_mean                  =   1.9643823612643E-19
(PID.TID 0000.0001) %MON vort_a_sd                    =   8.5822702880403E-05
(PID.TID 0000.0001) %MON vort_p_mean                  =   1.9643823612643E-19
(PID.TID 0000.0001) %MON vort_p_sd                    =   8.5822702880403E-05
(PID.TID 0000.0001) %MON surfExpan_theta_mean         =  -1.5115870513964E-03
(PID.TID 0000.0001) %MON surfExpan_salt_mean          =  -1.3487043961211E-06
(PID.TID 0000.0001) %MON surfExpan_Heat_mean          =  -9.5979558908398E-02
(PID.TID 0000.0001) %MON En_Budget_T2PE_mean          =  -2.0955488020193E-01
(PID.TID 0000.0001) // =======================================================
(PID.TID 0000.0001) // End MONITOR dynamic field statistics
(PID.TID 0000.0001) // =======================================================
 Current Date     20040321 Current Time          400
 cg2d: Sum(rhs),rhsMax =   2.18278728425503E-11  1.00664134477666E+03
(PID.TID 0000.0001)                    cg2d_init_res =    9.48025367277214E+03
(PID.TID 0000.0001)                       cg2d_iters =     6
(PID.TID 0000.0001)                         cg2d_res =    1.81266813620773E-10
(PID.TID 0000.0001) // =======================================================
(PID.TID 0000.0001) // Begin MONITOR dynamic field statistics
(PID.TID 0000.0001) // =======================================================
(PID.TID 0000.0001) %MON time_tsnumber                =                     2
(PID.TID 0000.0001) %MON time_secondsf                =   2.4000000000000E+02
(PID.TID 0000.0001) %MON dynstat_eta_max              =   2.9927515296453E+01
(PID.TID 0000.0001) %MON dynstat_eta_min              =  -2.0289960929123E+01
(PID.TID 0000.0001) %MON dynstat_eta_mean             =   1.2418244682581E-16
(PID.TID 0000.0001) %MON dynstat_eta_sd               =   3.1881608577208E+00
(PID.TID 0000.0001) %MON dynstat_eta_del2             =   8.7937349606785E-01
(PID.TID 0000.0001) %MON dynstat_uvel_max             =   4.1651694936571E+01
(PID.TID 0000.0001) %MON dynstat_uvel_min             =  -3.6923976977160E+01
(PID.TID 0000.0001) %MON dynstat_uvel_mean            =   1.7026170459630E+00
(PID.TID 0000.0001) %MON dynstat_uvel_sd              =   7.8725698674180E+00
(PID.TID 0000.0001) %MON dynstat_uvel_del2            =   3.1463380210655E-01
(PID.TID 0000.0001) %MON dynstat_vvel_max             =   3.8252464726886E+01
(PID.TID 0000.0001) %MON dynstat_vvel_min             =  -3.3316415910231E+01
(PID.TID 0000.0001) %MON dynstat_vvel_mean            =   1.6739288882092E+00
(PID.TID 0000.0001) %MON dynstat_vvel_sd              =   7.8541921175963E+00
(PID.TID 0000.0001) %MON dynstat_vvel_del2            =   3.1801824345233E-01
(PID.TID 0000.0001) %MON dynstat_wvel_max             =   2.0394114318266E-01
(PID.TID 0000.0001) %MON dynstat_wvel_min             =  -1.7238678424672E-01
(PID.TID 0000.0001) %MON dynstat_wvel_mean            =  -3.1841653032260E-19
(PID.TID 0000.0001) %MON dynstat_wvel_sd              =   2.6378144235638E-02
(PID.TID 0000.0001) %MON dynstat_wvel_del2            =   6.8213270161552E-03
(PID.TID 0000.0001) %MON dynstat_theta_max            =   4.8605549747398E+02
(PID.TID 0000.0001) %MON dynstat_theta_min            =   2.6911436188640E+02
(PID.TID 0000.0001) %MON dynstat_theta_mean           =   3.2505194318896E+02
(PID.TID 0000.0001) %MON dynstat_theta_sd             =   4.7790428991044E+01
(PID.TID 0000.0001) %MON dynstat_theta_del2           =   9.9565423450084E-02
(PID.TID 0000.0001) %MON dynstat_salt_max             =   2.9371440617293E-02
(PID.TID 0000.0001) %MON dynstat_salt_min             =  -4.3566889543383E-10
(PID.TID 0000.0001) %MON dynstat_salt_mean            =   2.6643716693892E-03
(PID.TID 0000.0001) %MON dynstat_salt_sd              =   4.4155532452370E-03
(PID.TID 0000.0001) %MON dynstat_salt_del2            =   4.1648175570702E-05
(PID.TID 0000.0001) %MON advcfl_uvel_max              =   3.1611110655060E-02
(PID.TID 0000.0001) %MON advcfl_vvel_max              =   3.5314169442631E-02
(PID.TID 0000.0001) %MON advcfl_wvel_max              =   4.8422906968577E-03
(PID.TID 0000.0001) %MON advcfl_W_hf_max              =   4.8422739971191E-03
(PID.TID 0000.0001) %MON pe_b_mean                    =   4.0934040429372E-05
(PID.TID 0000.0001) %MON ke_max                       =   8.6375268491940E+02
(PID.TID 0000.0001) %MON ke_mean                      =   6.4683316433555E+01
(PID.TID 0000.0001) %MON ke_vol                       =   5.1537074390046E+19
(PID.TID 0000.0001) %MON vort_r_min                   =  -4.8326840378426E-05
(PID.TID 0000.0001) %MON vort_r_max                   =   5.4441797744127E-05
(PID.TID 0000.0001) %MON vort_a_mean                  =   3.6377451134524E-20
(PID.TID 0000.0001) %MON vort_a_sd                    =   8.5822494495153E-05
(PID.TID 0000.0001) %MON vort_p_mean                  =   3.6377450971155E-20
(PID.TID 0000.0001) %MON vort_p_sd                    =   8.5822537411756E-05
(PID.TID 0000.0001) %MON surfExpan_theta_mean         =   4.3244762016426E-04
(PID.TID 0000.0001) %MON surfExpan_salt_mean          =  -2.7650337847566E-06
(PID.TID 0000.0001) %MON surfExpan_Heat_mean          =   1.5394527624714E-01
(PID.TID 0000.0001) %MON En_Budget_T2PE_mean          =  -1.9030634340103E-01
(PID.TID 0000.0001) // =======================================================
(PID.TID 0000.0001) // End MONITOR dynamic field statistics
(PID.TID 0000.0001) // =======================================================
 Current Date     20040321 Current Time          600
 cg2d: Sum(rhs),rhsMax =  -8.73114913702011E-11  1.97853787485241E+03
(PID.TID 0000.0001)                    cg2d_init_res =    1.41157793892178E+04
(PID.TID 0000.0001)                       cg2d_iters =     6
(PID.TID 0000.0001)                         cg2d_res =    2.63187854165466E-10
(PID.TID 0000.0001) // =======================================================
(PID.TID 0000.0001) // Begin MONITOR dynamic field statistics
(PID.TID 0000.0001) // =======================================================
(PID.TID 0000.0001) %MON time_tsnumber                =                     3
(PID.TID 0000.0001) %MON time_secondsf                =   3.6000000000000E+02
(PID.TID 0000.0001) %MON dynstat_eta_max              =   5.0335482853348E+01
(PID.TID 0000.0001) %MON dynstat_eta_min              =  -3.9870425437808E+01
(PID.TID 0000.0001) %MON dynstat_eta_mean             =  -2.4836489365163E-16
(PID.TID 0000.0001) %MON dynstat_eta_sd               =   6.3300194196266E+00
(PID.TID 0000.0001) %MON dynstat_eta_del2             =   1.6589890044106E+00
(PID.TID 0000.0001) %MON dynstat_uvel_max             =   4.1632029374936E+01
(PID.TID 0000.0001) %MON dynstat_uvel_min             =  -3.6956133282411E+01
(PID.TID 0000.0001) %MON dynstat_uvel_mean            =   1.7020797358813E+00
(PID.TID 0000.0001) %MON dynstat_uvel_sd              =   7.8706216460365E+00
(PID.TID 0000.0001) %MON dynstat_uvel_del2            =   3.1433091002586E-01
(PID.TID 0000.0001) %MON dynstat_vvel_max             =   3.8236951472456E+01
(PID.TID 0000.0001) %MON dynstat_vvel_min             =  -3.3246796870777E+01
(PID.TID 0000.0001) %MON dynstat_vvel_mean            =   1.6744701618001E+00
(PID.TID 0000.0001) %MON dynstat_vvel_sd              =   7.8549928852844E+00
(PID.TID 0000.0001) %MON dynstat_vvel_del2            =   3.1786360664553E-01
(PID.TID 0000.0001) %MON dynstat_wvel_max             =   2.0255233013652E-01
(PID.TID 0000.0001) %MON dynstat_wvel_min             =  -1.8471500359299E-01
(PID.TID 0000.0001) %MON dynstat_wvel_mean            =   5.2538727503229E-18
(PID.TID 0000.0001) %MON dynstat_wvel_sd              =   2.6404682083819E-02
(PID.TID 0000.0001) %MON dynstat_wvel_del2            =   6.8068955838050E-03
(PID.TID 0000.0001) %MON dynstat_theta_max            =   4.8615512450417E+02
(PID.TID 0000.0001) %MON dynstat_theta_min            =   2.6911608656648E+02
(PID.TID 0000.0001) %MON dynstat_theta_mean           =   3.2506242273257E+02
(PID.TID 0000.0001) %MON dynstat_theta_sd             =   4.7828279880714E+01
(PID.TID 0000.0001) %MON dynstat_theta_del2           =   9.9531518422342E-02
(PID.TID 0000.0001) %MON dynstat_salt_max             =   2.9229591844751E-02
(PID.TID 0000.0001) %MON dynstat_salt_min             =  -8.0009267268655E-10
(PID.TID 0000.0001) %MON dynstat_salt_mean            =   2.6644324451108E-03
(PID.TID 0000.0001) %MON dynstat_salt_sd              =   4.4052914095978E-03
(PID.TID 0000.0001) %MON dynstat_salt_del2            =   4.2702567626956E-05
(PID.TID 0000.0001) %MON advcfl_uvel_max              =   3.1638009092280E-02
(PID.TID 0000.0001) %MON advcfl_vvel_max              =   3.5304814116732E-02
(PID.TID 0000.0001) %MON advcfl_wvel_max              =   4.8093153178438E-03
(PID.TID 0000.0001) %MON advcfl_W_hf_max              =   4.8092576191406E-03
(PID.TID 0000.0001) %MON pe_b_mean                    =   1.6136682273770E-04
(PID.TID 0000.0001) %MON ke_max                       =   8.6273231649236E+02
(PID.TID 0000.0001) %MON ke_mean                      =   6.4674262040098E+01
(PID.TID 0000.0001) %MON ke_vol                       =   5.1537074390047E+19
(PID.TID 0000.0001) %MON vort_r_min                   =  -4.8320607094045E-05
(PID.TID 0000.0001) %MON vort_r_max                   =   5.4466470739381E-05
(PID.TID 0000.0001) %MON vort_a_mean                  =   7.2754902269047E-21
(PID.TID 0000.0001) %MON vort_a_sd                    =   8.5822205832891E-05
(PID.TID 0000.0001) %MON vort_p_mean                  =   7.2754901224967E-21
(PID.TID 0000.0001) %MON vort_p_sd                    =   8.5822364625986E-05
(PID.TID 0000.0001) %MON surfExpan_theta_mean         =   2.4344709573426E-03
(PID.TID 0000.0001) %MON surfExpan_salt_mean          =  -4.1585759979493E-06
(PID.TID 0000.0001) %MON surfExpan_Heat_mean          =   4.0790238457843E-01
(PID.TID 0000.0001) %MON En_Budget_T2PE_mean          =  -1.7147220376388E-01
(PID.TID 0000.0001) // =======================================================
(PID.TID 0000.0001) // End MONITOR dynamic field statistics
(PID.TID 0000.0001) // =======================================================
 Current Date     20040321 Current Time          800
 cg2d: Sum(rhs),rhsMax =   4.07453626394272E-10  3.23558987182086E+03
(PID.TID 0000.0001)                    cg2d_init_res =    1.85717586167596E+04
(PID.TID 0000.0001)                       cg2d_iters =     6
(PID.TID 0000.0001)                         cg2d_res =    3.37969939363179E-10
(PID.TID 0000.0001) // =======================================================
(PID.TID 0000.0001) // Begin MONITOR dynamic field statistics
(PID.TID 0000.0001) // =======================================================
(PID.TID 0000.0001) %MON time_tsnumber                =                     4
(PID.TID 0000.0001) %MON time_secondsf                =   4.8000000000000E+02
(PID.TID 0000.0001) %MON dynstat_eta_max              =   6.8666948929873E+01
(PID.TID 0000.0001) %MON dynstat_eta_min              =  -6.5200829824508E+01
(PID.TID 0000.0001) %MON dynstat_eta_mean             =  -6.9542170222456E-16
(PID.TID 0000.0001) %MON dynstat_eta_sd               =   1.0465999039272E+01
(PID.TID 0000.0001) %MON dynstat_eta_del2             =   2.6001955575849E+00
(PID.TID 0000.0001) %MON dynstat_uvel_max             =   4.1612575268619E+01
(PID.TID 0000.0001) %MON dynstat_uvel_min             =  -3.6987039717721E+01
(PID.TID 0000.0001) %MON dynstat_uvel_mean            =   1.7015578465057E+00
(PID.TID 0000.0001) %MON dynstat_uvel_sd              =   7.8686676949511E+00
(PID.TID 0000.0001) %MON dynstat_uvel_del2            =   3.1408214514545E-01
(PID.TID 0000.0001) %MON dynstat_vvel_max             =   3.8220579642217E+01
(PID.TID 0000.0001) %MON dynstat_vvel_min             =  -3.3176070484284E+01
(PID.TID 0000.0001) %MON dynstat_vvel_mean            =   1.6750245294603E+00
(PID.TID 0000.0001) %MON dynstat_vvel_sd              =   7.8557241111850E+00
(PID.TID 0000.0001) %MON dynstat_vvel_del2            =   3.1775097744097E-01
(PID.TID 0000.0001) %MON dynstat_wvel_max             =   2.0108869379419E-01
(PID.TID 0000.0001) %MON dynstat_wvel_min             =  -1.9763429039724E-01
(PID.TID 0000.0001) %MON dynstat_wvel_mean            =  -4.7762479548390E-18
(PID.TID 0000.0001) %MON dynstat_wvel_sd              =   2.6437022607160E-02
(PID.TID 0000.0001) %MON dynstat_wvel_del2            =   6.8105038123945E-03
(PID.TID 0000.0001) %MON dynstat_theta_max            =   4.8625450338039E+02
(PID.TID 0000.0001) %MON dynstat_theta_min            =   2.6911778502627E+02
(PID.TID 0000.0001) %MON dynstat_theta_mean           =   3.2507290084910E+02
(PID.TID 0000.0001) %MON dynstat_theta_sd             =   4.7866178877882E+01
(PID.TID 0000.0001) %MON dynstat_theta_del2           =   9.9560400717819E-02
(PID.TID 0000.0001) %MON dynstat_salt_max             =   2.9088266060956E-02
(PID.TID 0000.0001) %MON dynstat_salt_min             =  -1.2098909813950E-09
(PID.TID 0000.0001) %MON dynstat_salt_mean            =   2.6644931671126E-03
(PID.TID 0000.0001) %MON dynstat_salt_sd              =   4.3955409021824E-03
(PID.TID 0000.0001) %MON dynstat_salt_del2            =   4.4268197691163E-05
(PID.TID 0000.0001) %MON advcfl_uvel_max              =   3.1649787698139E-02
(PID.TID 0000.0001) %MON advcfl_vvel_max              =   3.5290964094282E-02
(PID.TID 0000.0001) %MON advcfl_wvel_max              =   4.7745633667002E-03
(PID.TID 0000.0001) %MON advcfl_W_hf_max              =   4.7744369933277E-03
(PID.TID 0000.0001) %MON pe_b_mean                    =   4.4112893385038E-04
(PID.TID 0000.0001) %MON ke_max                       =   8.6172984032330E+02
(PID.TID 0000.0001) %MON ke_mean                      =   6.4664669449440E+01
(PID.TID 0000.0001) %MON ke_vol                       =   5.1537074390047E+19
(PID.TID 0000.0001) %MON vort_r_min                   =  -4.8313026223137E-05
(PID.TID 0000.0001) %MON vort_r_max                   =   5.4490657342482E-05
(PID.TID 0000.0001) %MON vort_a_mean                  =  -6.5479412042143E-20
(PID.TID 0000.0001) %MON vort_a_sd                    =   8.5821866215998E-05
(PID.TID 0000.0001) %MON vort_p_mean                  =  -6.5479410131886E-20
(PID.TID 0000.0001) %MON vort_p_sd                    =   8.5822213020554E-05
(PID.TID 0000.0001) %MON surfExpan_theta_mean         =   4.5047217651708E-03
(PID.TID 0000.0001) %MON surfExpan_salt_mean          =  -5.5235814257308E-06
(PID.TID 0000.0001) %MON surfExpan_Heat_mean          =   6.6674241832384E-01
(PID.TID 0000.0001) %MON En_Budget_T2PE_mean          =  -1.5295697979707E-01
(PID.TID 0000.0001) // =======================================================
(PID.TID 0000.0001) // End MONITOR dynamic field statistics
(PID.TID 0000.0001) // =======================================================
 Current Date     20040321 Current Time         1000
 cg2d: Sum(rhs),rhsMax =  -7.56699591875076E-10  4.75224866014793E+03
(PID.TID 0000.0001)                    cg2d_init_res =    2.28038671762314E+04
(PID.TID 0000.0001)                       cg2d_iters =     6
(PID.TID 0000.0001)                         cg2d_res =    4.05648030050066E-10
(PID.TID 0000.0001) // =======================================================
(PID.TID 0000.0001) // Begin MONITOR dynamic field statistics
(PID.TID 0000.0001) // =======================================================
(PID.TID 0000.0001) %MON time_tsnumber                =                     5
(PID.TID 0000.0001) %MON time_secondsf                =   6.0000000000000E+02
(PID.TID 0000.0001) %MON dynstat_eta_max              =   8.3052478002271E+01
(PID.TID 0000.0001) %MON dynstat_eta_min              =  -9.5773864540084E+01
(PID.TID 0000.0001) %MON dynstat_eta_mean             =   1.9869191492130E-16
(PID.TID 0000.0001) %MON dynstat_eta_sd               =   1.5545895398028E+01
(PID.TID 0000.0001) %MON dynstat_eta_del2             =   3.6519865824078E+00
(PID.TID 0000.0001) %MON dynstat_uvel_max             =   4.1593693764876E+01
(PID.TID 0000.0001) %MON dynstat_uvel_min             =  -3.7016702742632E+01
(PID.TID 0000.0001) %MON dynstat_uvel_mean            =   1.7010513736658E+00
(PID.TID 0000.0001) %MON dynstat_uvel_sd              =   7.8667281230444E+00
(PID.TID 0000.0001) %MON dynstat_uvel_del2            =   3.1387363160322E-01
(PID.TID 0000.0001) %MON dynstat_vvel_max             =   3.8203500005748E+01
(PID.TID 0000.0001) %MON dynstat_vvel_min             =  -3.3104515195768E+01
(PID.TID 0000.0001) %MON dynstat_vvel_mean            =   1.6755892466889E+00
(PID.TID 0000.0001) %MON dynstat_vvel_sd              =   7.8564093326094E+00
(PID.TID 0000.0001) %MON dynstat_vvel_del2            =   3.1764220482938E-01
(PID.TID 0000.0001) %MON dynstat_wvel_max             =   2.0141921520209E-01
(PID.TID 0000.0001) %MON dynstat_wvel_min             =  -2.1124927294551E-01
(PID.TID 0000.0001) %MON dynstat_wvel_mean            =  -4.2986231593551E-18
(PID.TID 0000.0001) %MON dynstat_wvel_sd              =   2.6476073354774E-02
(PID.TID 0000.0001) %MON dynstat_wvel_del2            =   6.8270239828513E-03
(PID.TID 0000.0001) %MON dynstat_theta_max            =   4.8635363742002E+02
(PID.TID 0000.0001) %MON dynstat_theta_min            =   2.6911943860270E+02
(PID.TID 0000.0001) %MON dynstat_theta_mean           =   3.2508338832529E+02
(PID.TID 0000.0001) %MON dynstat_theta_sd             =   4.7904122594536E+01
(PID.TID 0000.0001) %MON dynstat_theta_del2           =   9.9534032795736E-02
(PID.TID 0000.0001) %MON dynstat_salt_max             =   2.8979630590502E-02
(PID.TID 0000.0001) %MON dynstat_salt_min             =  -1.6445719674937E-09
(PID.TID 0000.0001) %MON dynstat_salt_mean            =   2.6645515554110E-03
(PID.TID 0000.0001) %MON dynstat_salt_sd              =   4.3871470263960E-03
(PID.TID 0000.0001) %MON dynstat_salt_del2            =   4.5202690628005E-05
(PID.TID 0000.0001) %MON advcfl_uvel_max              =   3.1652244271942E-02
(PID.TID 0000.0001) %MON advcfl_vvel_max              =   3.5273610055477E-02
(PID.TID 0000.0001) %MON advcfl_wvel_max              =   5.0158117834311E-03
(PID.TID 0000.0001) %MON advcfl_W_hf_max              =   5.0168516248126E-03
(PID.TID 0000.0001) %MON pe_b_mean                    =   9.7327517382871E-04
(PID.TID 0000.0001) %MON ke_max                       =   8.6075806481543E+02
(PID.TID 0000.0001) %MON ke_mean                      =   6.4654877043011E+01
(PID.TID 0000.0001) %MON ke_vol                       =   5.1537074390046E+19
(PID.TID 0000.0001) %MON vort_r_min                   =  -4.8304147625811E-05
(PID.TID 0000.0001) %MON vort_r_max                   =   5.4514365037493E-05
(PID.TID 0000.0001) %MON vort_a_mean                  =  -1.3338398749325E-19
(PID.TID 0000.0001) %MON vort_a_sd                    =   8.5821471560577E-05
(PID.TID 0000.0001) %MON vort_p_mean                  =  -1.3338398102264E-19
(PID.TID 0000.0001) %MON vort_p_sd                    =   8.5822077471882E-05
(PID.TID 0000.0001) %MON surfExpan_theta_mean         =   6.6507265386582E-03
(PID.TID 0000.0001) %MON surfExpan_salt_mean          =  -6.8554696275525E-06
(PID.TID 0000.0001) %MON surfExpan_Heat_mean          =   9.3105208243524E-01
(PID.TID 0000.0001) %MON En_Budget_T2PE_mean          =  -1.3471034692808E-01
(PID.TID 0000.0001) // =======================================================
(PID.TID 0000.0001) // End MONITOR dynamic field statistics
(PID.TID 0000.0001) // =======================================================
 Current Date     20040321 Current Time         1200
 cg2d: Sum(rhs),rhsMax =  -2.15368345379829E-09  6.50001237612701E+03
(PID.TID 0000.0001)                    cg2d_init_res =    2.67930203494738E+04
(PID.TID 0000.0001)                       cg2d_iters =     7
(PID.TID 0000.0001)                         cg2d_res =    2.83234498129165E-12
(PID.TID 0000.0001) // =======================================================
(PID.TID 0000.0001) // Begin MONITOR dynamic field statistics
(PID.TID 0000.0001) // =======================================================
(PID.TID 0000.0001) %MON time_tsnumber                =                     6
(PID.TID 0000.0001) %MON time_secondsf                =   7.2000000000000E+02
(PID.TID 0000.0001) %MON dynstat_eta_max              =   9.6323944350092E+01
(PID.TID 0000.0001) %MON dynstat_eta_min              =  -1.3102339489074E+02
(PID.TID 0000.0001) %MON dynstat_eta_mean             =  -7.9476765968521E-16
(PID.TID 0000.0001) %MON dynstat_eta_sd               =   2.1515000444544E+01
(PID.TID 0000.0001) %MON dynstat_eta_del2             =   4.7709685517301E+00
(PID.TID 0000.0001) %MON dynstat_uvel_max             =   4.1575693883064E+01
(PID.TID 0000.0001) %MON dynstat_uvel_min             =  -3.7045109754764E+01
(PID.TID 0000.0001) %MON dynstat_uvel_mean            =   1.7005619638762E+00
(PID.TID 0000.0001) %MON dynstat_uvel_sd              =   7.8647655527114E+00
(PID.TID 0000.0001) %MON dynstat_uvel_del2            =   3.1369473302819E-01
(PID.TID 0000.0001) %MON dynstat_vvel_max             =   3.8185876911471E+01
(PID.TID 0000.0001) %MON dynstat_vvel_min             =  -3.3032411560079E+01
(PID.TID 0000.0001) %MON dynstat_vvel_mean            =   1.6761648023802E+00
(PID.TID 0000.0001) %MON dynstat_vvel_sd              =   7.8569996456034E+00
(PID.TID 0000.0001) %MON dynstat_vvel_del2            =   3.1754273529445E-01
(PID.TID 0000.0001) %MON dynstat_wvel_max             =   2.0397949901675E-01
(PID.TID 0000.0001) %MON dynstat_wvel_min             =  -2.2556603695668E-01
(PID.TID 0000.0001) %MON dynstat_wvel_mean            =  -7.3235801974198E-18
(PID.TID 0000.0001) %MON dynstat_wvel_sd              =   2.6520161554922E-02
(PID.TID 0000.0001) %MON dynstat_wvel_del2            =   6.8537251069456E-03
(PID.TID 0000.0001) %MON dynstat_theta_max            =   4.8645252886330E+02
(PID.TID 0000.0001) %MON dynstat_theta_min            =   2.6912109302614E+02
(PID.TID 0000.0001) %MON dynstat_theta_mean           =   3.2509387495288E+02
(PID.TID 0000.0001) %MON dynstat_theta_sd             =   4.7942115882064E+01
(PID.TID 0000.0001) %MON dynstat_theta_del2           =   9.9552393261820E-02
(PID.TID 0000.0001) %MON dynstat_salt_max             =   2.8871436926957E-02
(PID.TID 0000.0001) %MON dynstat_salt_min             =  -2.0859340160715E-09
(PID.TID 0000.0001) %MON dynstat_salt_mean            =   2.6646100874681E-03
(PID.TID 0000.0001) %MON dynstat_salt_sd              =   4.3790561622385E-03
(PID.TID 0000.0001) %MON dynstat_salt_del2            =   4.6353892869631E-05
(PID.TID 0000.0001) %MON advcfl_uvel_max              =   3.1650853539975E-02
(PID.TID 0000.0001) %MON advcfl_vvel_max              =   3.5253970925322E-02
(PID.TID 0000.0001) %MON advcfl_wvel_max              =   5.3557428640289E-03
(PID.TID 0000.0001) %MON advcfl_W_hf_max              =   5.3566219353141E-03
(PID.TID 0000.0001) %MON pe_b_mean                    =   1.8641758693774E-03
(PID.TID 0000.0001) %MON ke_max                       =   8.5982770520305E+02
(PID.TID 0000.0001) %MON ke_mean                      =   6.4644210048988E+01
(PID.TID 0000.0001) %MON ke_vol                       =   5.1537074390047E+19
(PID.TID 0000.0001) %MON vort_r_min                   =  -4.8294031681797E-05
(PID.TID 0000.0001) %MON vort_r_max                   =   5.4537602934752E-05
(PID.TID 0000.0001) %MON vort_a_mean                  =  -8.2455555904920E-20
(PID.TID 0000.0001) %MON vort_a_sd                    =   8.5821019602286E-05
(PID.TID 0000.0001) %MON vort_p_mean                  =  -8.2455549973561E-20
(PID.TID 0000.0001) %MON vort_p_sd                    =   8.5821954447740E-05
(PID.TID 0000.0001) %MON surfExpan_theta_mean         =   8.8789558404630E-03
(PID.TID 0000.0001) %MON surfExpan_salt_mean          =  -8.1512184107957E-06
(PID.TID 0000.0001) %MON surfExpan_Heat_mean          =   1.2013294487124E+00
(PID.TID 0000.0001) %MON En_Budget_T2PE_mean          =  -1.1679922324683E-01
(PID.TID 0000.0001) // =======================================================
(PID.TID 0000.0001) // End MONITOR dynamic field statistics
(PID.TID 0000.0001) // =======================================================
 Current Date     20040321 Current Time         1400
 cg2d: Sum(rhs),rhsMax =   5.82076609134674E-10  8.46130876820064E+03
(PID.TID 0000.0001)                    cg2d_init_res =    3.05322301535548E+04
(PID.TID 0000.0001)                       cg2d_iters =     7
(PID.TID 0000.0001)                         cg2d_res =    4.11726667452253E-12
(PID.TID 0000.0001) // =======================================================
(PID.TID 0000.0001) // Begin MONITOR dynamic field statistics
(PID.TID 0000.0001) // =======================================================
(PID.TID 0000.0001) %MON time_tsnumber                =                     7
(PID.TID 0000.0001) %MON time_secondsf                =   8.4000000000000E+02
(PID.TID 0000.0001) %MON dynstat_eta_max              =   1.1362423785382E+02
(PID.TID 0000.0001) %MON dynstat_eta_min              =  -1.7034171575557E+02
(PID.TID 0000.0001) %MON dynstat_eta_mean             =  -3.3777625536621E-15
(PID.TID 0000.0001) %MON dynstat_eta_sd               =   2.8315972680655E+01
(PID.TID 0000.0001) %MON dynstat_eta_del2             =   5.9210213960381E+00
(PID.TID 0000.0001) %MON dynstat_uvel_max             =   4.1558830790103E+01
(PID.TID 0000.0001) %MON dynstat_uvel_min             =  -3.7072229172335E+01
(PID.TID 0000.0001) %MON dynstat_uvel_mean            =   1.7000889047083E+00
(PID.TID 0000.0001) %MON dynstat_uvel_sd              =   7.8627893341888E+00
(PID.TID 0000.0001) %MON dynstat_uvel_del2            =   3.1352912356318E-01
(PID.TID 0000.0001) %MON dynstat_vvel_max             =   3.8167879555397E+01
(PID.TID 0000.0001) %MON dynstat_vvel_min             =  -3.2960305184146E+01
(PID.TID 0000.0001) %MON dynstat_vvel_mean            =   1.6767477323951E+00
(PID.TID 0000.0001) %MON dynstat_vvel_sd              =   7.8575048875337E+00
(PID.TID 0000.0001) %MON dynstat_vvel_del2            =   3.1743474305990E-01
(PID.TID 0000.0001) %MON dynstat_wvel_max             =   2.2483133175708E-01
(PID.TID 0000.0001) %MON dynstat_wvel_min             =  -2.4046789017198E-01
(PID.TID 0000.0001) %MON dynstat_wvel_mean            =  -6.0499140761294E-18
(PID.TID 0000.0001) %MON dynstat_wvel_sd              =   2.6570026837078E-02
(PID.TID 0000.0001) %MON dynstat_wvel_del2            =   6.8904667140511E-03
(PID.TID 0000.0001) %MON dynstat_theta_max            =   4.8655117437409E+02
(PID.TID 0000.0001) %MON dynstat_theta_min            =   2.6912277442964E+02
(PID.TID 0000.0001) %MON dynstat_theta_mean           =   3.2510436911614E+02
(PID.TID 0000.0001) %MON dynstat_theta_sd             =   4.7980151344129E+01
(PID.TID 0000.0001) %MON dynstat_theta_del2           =   9.9542402616722E-02
(PID.TID 0000.0001) %MON dynstat_salt_max             =   2.8788278658094E-02
(PID.TID 0000.0001) %MON dynstat_salt_min             =  -2.5188322291520E-09
(PID.TID 0000.0001) %MON dynstat_salt_mean            =   2.6646657251604E-03
(PID.TID 0000.0001) %MON dynstat_salt_sd              =   4.3716591012974E-03
(PID.TID 0000.0001) %MON dynstat_salt_del2            =   4.7172081316693E-05
(PID.TID 0000.0001) %MON advcfl_uvel_max              =   3.1649420673560E-02
(PID.TID 0000.0001) %MON advcfl_vvel_max              =   3.5233075741022E-02
(PID.TID 0000.0001) %MON advcfl_wvel_max              =   5.7095660507792E-03
(PID.TID 0000.0001) %MON advcfl_W_hf_max              =   5.7099939987765E-03
(PID.TID 0000.0001) %MON pe_b_mean                    =   3.2289932154705E-03
(PID.TID 0000.0001) %MON ke_max                       =   8.5894733208714E+02
(PID.TID 0000.0001) %MON ke_mean                      =   6.4632812223947E+01
(PID.TID 0000.0001) %MON ke_vol                       =   5.1537074390046E+19
(PID.TID 0000.0001) %MON vort_r_min                   =  -4.8282747538889E-05
(PID.TID 0000.0001) %MON vort_r_max                   =   5.4560381230627E-05
(PID.TID 0000.0001) %MON vort_a_mean                  =   6.5479412042143E-20
(PID.TID 0000.0001) %MON vort_a_sd                    =   8.5820506415600E-05
(PID.TID 0000.0001) %MON vort_p_mean                  =   6.3054242385956E-20
(PID.TID 0000.0001) %MON vort_p_sd                    =   8.5821838570453E-05
(PID.TID 0000.0001) %MON surfExpan_theta_mean         =   1.1193844079137E-02
(PID.TID 0000.0001) %MON surfExpan_salt_mean          =  -9.4084896267269E-06
(PID.TID 0000.0001) %MON surfExpan_Heat_mean          =   1.4778847438990E+00
(PID.TID 0000.0001) %MON En_Budget_T2PE_mean          =  -9.9188741367040E-02
(PID.TID 0000.0001) // =======================================================
(PID.TID 0000.0001) // End MONITOR dynamic field statistics
(PID.TID 0000.0001) // =======================================================
 Current Date     20040321 Current Time         1600
 cg2d: Sum(rhs),rhsMax =   5.82076609134674E-10  1.06757552375244E+04
(PID.TID 0000.0001)                    cg2d_init_res =    3.40257553417334E+04
(PID.TID 0000.0001)                       cg2d_iters =     7
(PID.TID 0000.0001)                         cg2d_res =    5.68098640512321E-12
(PID.TID 0000.0001) // =======================================================
(PID.TID 0000.0001) // Begin MONITOR dynamic field statistics
(PID.TID 0000.0001) // =======================================================
(PID.TID 0000.0001) %MON time_tsnumber                =                     8
(PID.TID 0000.0001) %MON time_secondsf                =   9.6000000000000E+02
(PID.TID 0000.0001) %MON dynstat_eta_max              =   1.3120109251172E+02
(PID.TID 0000.0001) %MON dynstat_eta_min              =  -2.1310021725639E+02
(PID.TID 0000.0001) %MON dynstat_eta_mean             =   4.3712221282687E-15
(PID.TID 0000.0001) %MON dynstat_eta_sd               =   3.5890980610328E+01
(PID.TID 0000.0001) %MON dynstat_eta_del2             =   7.0720486958087E+00
(PID.TID 0000.0001) %MON dynstat_uvel_max             =   4.1543302091815E+01
(PID.TID 0000.0001) %MON dynstat_uvel_min             =  -3.7098010336387E+01
(PID.TID 0000.0001) %MON dynstat_uvel_mean            =   1.6996343245511E+00
(PID.TID 0000.0001) %MON dynstat_uvel_sd              =   7.8607727474401E+00
(PID.TID 0000.0001) %MON dynstat_uvel_del2            =   3.1337731659303E-01
(PID.TID 0000.0001) %MON dynstat_vvel_max             =   3.8149677034047E+01
(PID.TID 0000.0001) %MON dynstat_vvel_min             =  -3.2954576540657E+01
(PID.TID 0000.0001) %MON dynstat_vvel_mean            =   1.6773393843645E+00
(PID.TID 0000.0001) %MON dynstat_vvel_sd              =   7.8578917736203E+00
(PID.TID 0000.0001) %MON dynstat_vvel_del2            =   3.1732560752374E-01
(PID.TID 0000.0001) %MON dynstat_wvel_max             =   2.4558911107739E-01
(PID.TID 0000.0001) %MON dynstat_wvel_min             =  -2.5572193071166E-01
(PID.TID 0000.0001) %MON dynstat_wvel_mean            =  -1.1462995091614E-17
(PID.TID 0000.0001) %MON dynstat_wvel_sd              =   2.6624344485054E-02
(PID.TID 0000.0001) %MON dynstat_wvel_del2            =   6.9349107935857E-03
(PID.TID 0000.0001) %MON dynstat_theta_max            =   4.8664956995318E+02
(PID.TID 0000.0001) %MON dynstat_theta_min            =   2.6912445658647E+02
(PID.TID 0000.0001) %MON dynstat_theta_mean           =   3.2511486300521E+02
(PID.TID 0000.0001) %MON dynstat_theta_sd             =   4.8018235611497E+01
(PID.TID 0000.0001) %MON dynstat_theta_del2           =   9.9572344077192E-02
(PID.TID 0000.0001) %MON dynstat_salt_max             =   2.8705480272603E-02
(PID.TID 0000.0001) %MON dynstat_salt_min             =  -2.9316878634638E-09
(PID.TID 0000.0001) %MON dynstat_salt_mean            =   2.6647212889107E-03
(PID.TID 0000.0001) %MON dynstat_salt_sd              =   4.3644827108323E-03
(PID.TID 0000.0001) %MON dynstat_salt_del2            =   4.8125872182763E-05
(PID.TID 0000.0001) %MON advcfl_uvel_max              =   3.1649627542536E-02
(PID.TID 0000.0001) %MON advcfl_vvel_max              =   3.5211561402617E-02
(PID.TID 0000.0001) %MON advcfl_wvel_max              =   6.0717514217252E-03
(PID.TID 0000.0001) %MON advcfl_W_hf_max              =   6.0714651467983E-03
(PID.TID 0000.0001) %MON pe_b_mean                    =   5.1876995035226E-03
(PID.TID 0000.0001) %MON ke_max                       =   8.5812320895463E+02
(PID.TID 0000.0001) %MON ke_mean                      =   6.4620217797581E+01
(PID.TID 0000.0001) %MON ke_vol                       =   5.1537074390047E+19
(PID.TID 0000.0001) %MON vort_r_min                   =  -4.8270371249984E-05
(PID.TID 0000.0001) %MON vort_r_max                   =   5.4582711125378E-05
(PID.TID 0000.0001) %MON vort_a_mean                  =   8.0030392495952E-20
(PID.TID 0000.0001) %MON vort_a_sd                    =   8.5819936323718E-05
(PID.TID 0000.0001) %MON vort_p_mean                  =   8.2455545213355E-20
(PID.TID 0000.0001) %MON vort_p_sd                    =   8.5821732519387E-05
(PID.TID 0000.0001) %MON surfExpan_theta_mean         =   1.3598707533546E-02
(PID.TID 0000.0001) %MON surfExpan_salt_mean          =  -1.0626375959451E-05
(PID.TID 0000.0001) %MON surfExpan_Heat_mean          =   1.7609399516083E+00
(PID.TID 0000.0001) %MON En_Budget_T2PE_mean          =  -8.1924170076563E-02
(PID.TID 0000.0001) // =======================================================
(PID.TID 0000.0001) // End MONITOR dynamic field statistics
(PID.TID 0000.0001) // =======================================================
 Current Date     20040321 Current Time         1800
 cg2d: Sum(rhs),rhsMax =   1.39698386192322E-09  1.30712887555844E+04
(PID.TID 0000.0001)                    cg2d_init_res =    3.72844903418877E+04
(PID.TID 0000.0001)                       cg2d_iters =     7
(PID.TID 0000.0001)                         cg2d_res =    7.38514085228812E-12
(PID.TID 0000.0001) // =======================================================
(PID.TID 0000.0001) // Begin MONITOR dynamic field statistics
(PID.TID 0000.0001) // =======================================================
(PID.TID 0000.0001) %MON time_tsnumber                =                     9
(PID.TID 0000.0001) %MON time_secondsf                =   1.0800000000000E+03
(PID.TID 0000.0001) %MON dynstat_eta_max              =   1.5189115449142E+02
(PID.TID 0000.0001) %MON dynstat_eta_min              =  -2.5866655227518E+02
(PID.TID 0000.0001) %MON dynstat_eta_mean             =  -7.9476765968521E-16
(PID.TID 0000.0001) %MON dynstat_eta_sd               =   4.4183336014512E+01
(PID.TID 0000.0001) %MON dynstat_eta_del2             =   8.1973299929106E+00
(PID.TID 0000.0001) %MON dynstat_uvel_max             =   4.1529251059638E+01
(PID.TID 0000.0001) %MON dynstat_uvel_min             =  -3.7122386210120E+01
(PID.TID 0000.0001) %MON dynstat_uvel_mean            =   1.6991973506396E+00
(PID.TID 0000.0001) %MON dynstat_uvel_sd              =   7.8587139958310E+00
(PID.TID 0000.0001) %MON dynstat_uvel_del2            =   3.1322774489139E-01
(PID.TID 0000.0001) %MON dynstat_vvel_max             =   3.8131427647202E+01
(PID.TID 0000.0001) %MON dynstat_vvel_min             =  -3.2945545796938E+01
(PID.TID 0000.0001) %MON dynstat_vvel_mean            =   1.6779363967808E+00
(PID.TID 0000.0001) %MON dynstat_vvel_sd              =   7.8581586577134E+00
(PID.TID 0000.0001) %MON dynstat_vvel_del2            =   3.1719953249678E-01
(PID.TID 0000.0001) %MON dynstat_wvel_max             =   2.6587348076677E-01
(PID.TID 0000.0001) %MON dynstat_wvel_min             =  -2.7098792417424E-01
(PID.TID 0000.0001) %MON dynstat_wvel_mean            =  -1.0666953765807E-17
(PID.TID 0000.0001) %MON dynstat_wvel_sd              =   2.6682682998268E-02
(PID.TID 0000.0001) %MON dynstat_wvel_del2            =   6.9852281553037E-03
(PID.TID 0000.0001) %MON dynstat_theta_max            =   4.8674772976722E+02
(PID.TID 0000.0001) %MON dynstat_theta_min            =   2.6912614946138E+02
(PID.TID 0000.0001) %MON dynstat_theta_mean           =   3.2512535668285E+02
(PID.TID 0000.0001) %MON dynstat_theta_sd             =   4.8056359121326E+01
(PID.TID 0000.0001) %MON dynstat_theta_del2           =   9.9600695899350E-02
(PID.TID 0000.0001) %MON dynstat_salt_max             =   2.8637411940044E-02
(PID.TID 0000.0001) %MON dynstat_salt_min             =  -3.3166590589518E-09
(PID.TID 0000.0001) %MON dynstat_salt_mean            =   2.6647738684404E-03
(PID.TID 0000.0001) %MON dynstat_salt_sd              =   4.3574107312355E-03
(PID.TID 0000.0001) %MON dynstat_salt_del2            =   4.8925082177559E-05
(PID.TID 0000.0001) %MON advcfl_uvel_max              =   3.1651308905233E-02
(PID.TID 0000.0001) %MON advcfl_vvel_max              =   3.5189674034094E-02
(PID.TID 0000.0001) %MON advcfl_wvel_max              =   6.4342205977264E-03
(PID.TID 0000.0001) %MON advcfl_W_hf_max              =   6.4330177231173E-03
(PID.TID 0000.0001) %MON pe_b_mean                    =   7.8617851418036E-03
(PID.TID 0000.0001) %MON ke_max                       =   8.5735941876169E+02
(PID.TID 0000.0001) %MON ke_mean                      =   6.4606392688133E+01
(PID.TID 0000.0001) %MON ke_vol                       =   5.1537074390047E+19
(PID.TID 0000.0001) %MON vort_r_min                   =  -4.8256983486005E-05
(PID.TID 0000.0001) %MON vort_r_max                   =   5.4604604588664E-05
(PID.TID 0000.0001) %MON vort_a_mean                  =  -1.9401307271746E-20
(PID.TID 0000.0001) %MON vort_a_sd                    =   8.5819303038471E-05
(PID.TID 0000.0001) %MON vort_p_mean                  =  -1.4550978074443E-20
(PID.TID 0000.0001) %MON vort_p_sd                    =   8.5821628226225E-05
(PID.TID 0000.0001) %MON surfExpan_theta_mean         =   1.6095272775794E-02
(PID.TID 0000.0001) %MON surfExpan_salt_mean          =  -1.1804358731040E-05
(PID.TID 0000.0001) %MON surfExpan_Heat_mean          =   2.0505434150459E+00
(PID.TID 0000.0001) %MON En_Budget_T2PE_mean          =  -6.4988027197064E-02
(PID.TID 0000.0001) // =======================================================
(PID.TID 0000.0001) // End MONITOR dynamic field statistics
(PID.TID 0000.0001) // =======================================================
 Current Date     20040321 Current Time         2000
 cg2d: Sum(rhs),rhsMax =   2.32830643653870E-10  1.56232615846724E+04
(PID.TID 0000.0001)                    cg2d_init_res =    4.03251064326339E+04
(PID.TID 0000.0001)                       cg2d_iters =     7
(PID.TID 0000.0001)                         cg2d_res =    9.00596197243619E-12
(PID.TID 0000.0001) // =======================================================
(PID.TID 0000.0001) // Begin MONITOR dynamic field statistics
(PID.TID 0000.0001) // =======================================================
(PID.TID 0000.0001) %MON time_tsnumber                =                    10
(PID.TID 0000.0001) %MON time_secondsf                =   1.2000000000000E+03
(PID.TID 0000.0001) %MON dynstat_eta_max              =   1.7382591324762E+02
(PID.TID 0000.0001) %MON dynstat_eta_min              =  -3.0642299058764E+02
(PID.TID 0000.0001) %MON dynstat_eta_mean             =   5.1659897879539E-15
(PID.TID 0000.0001) %MON dynstat_eta_sd               =   5.3139175982838E+01
(PID.TID 0000.0001) %MON dynstat_eta_del2             =   9.2732139724582E+00
(PID.TID 0000.0001) %MON dynstat_uvel_max             =   4.1516766149079E+01
(PID.TID 0000.0001) %MON dynstat_uvel_min             =  -3.7145274483105E+01
(PID.TID 0000.0001) %MON dynstat_uvel_mean            =   1.6987800661971E+00
(PID.TID 0000.0001) %MON dynstat_uvel_sd              =   7.8565976252310E+00
(PID.TID 0000.0001) %MON dynstat_uvel_del2            =   3.1308887368936E-01
(PID.TID 0000.0001) %MON dynstat_vvel_max             =   3.8113271493686E+01
(PID.TID 0000.0001) %MON dynstat_vvel_min             =  -3.2933226595871E+01
(PID.TID 0000.0001) %MON dynstat_vvel_mean            =   1.6785402268988E+00
(PID.TID 0000.0001) %MON dynstat_vvel_sd              =   7.8582855832808E+00
(PID.TID 0000.0001) %MON dynstat_vvel_del2            =   3.1707327233042E-01
(PID.TID 0000.0001) %MON dynstat_wvel_max             =   2.8528734540471E-01
(PID.TID 0000.0001) %MON dynstat_wvel_min             =  -2.8585095082015E-01
(PID.TID 0000.0001) %MON dynstat_wvel_mean            =   9.3932876445167E-18
(PID.TID 0000.0001) %MON dynstat_wvel_sd              =   2.6744229670193E-02
(PID.TID 0000.0001) %MON dynstat_wvel_del2            =   7.0389428142408E-03
(PID.TID 0000.0001) %MON dynstat_theta_max            =   4.8684563756073E+02
(PID.TID 0000.0001) %MON dynstat_theta_min            =   2.6912784283306E+02
(PID.TID 0000.0001) %MON dynstat_theta_mean           =   3.2513585008621E+02
(PID.TID 0000.0001) %MON dynstat_theta_sd             =   4.8094531495152E+01
(PID.TID 0000.0001) %MON dynstat_theta_del2           =   9.9679857725627E-02
(PID.TID 0000.0001) %MON dynstat_salt_max             =   2.8569652307807E-02
(PID.TID 0000.0001) %MON dynstat_salt_min             =  -3.6696038686506E-09
(PID.TID 0000.0001) %MON dynstat_salt_mean            =   2.6648263742396E-03
(PID.TID 0000.0001) %MON dynstat_salt_sd              =   4.3505353536660E-03
(PID.TID 0000.0001) %MON dynstat_salt_del2            =   4.9870288505873E-05
(PID.TID 0000.0001) %MON advcfl_uvel_max              =   3.1653152026785E-02
(PID.TID 0000.0001) %MON advcfl_vvel_max              =   3.5167408590737E-02
(PID.TID 0000.0001) %MON advcfl_wvel_max              =   6.7871219031297E-03
(PID.TID 0000.0001) %MON advcfl_W_hf_max              =   6.7848727278917E-03
(PID.TID 0000.0001) %MON pe_b_mean                    =   1.1371919964145E-02
(PID.TID 0000.0001) %MON ke_max                       =   8.5710239181197E+02
(PID.TID 0000.0001) %MON ke_mean                      =   6.4591064789709E+01
(PID.TID 0000.0001) %MON ke_vol                       =   5.1537074390047E+19
(PID.TID 0000.0001) %MON vort_r_min                   =  -4.8242667496943E-05
(PID.TID 0000.0001) %MON vort_r_max                   =   5.4626074327890E-05
(PID.TID 0000.0001) %MON vort_a_mean                  =   1.2125817044841E-20
(PID.TID 0000.0001) %MON vort_a_sd                    =   8.5818616069995E-05
(PID.TID 0000.0001) %MON vort_p_mean                  =   1.2125814613003E-20
(PID.TID 0000.0001) %MON vort_p_sd                    =   8.5821533272777E-05
(PID.TID 0000.0001) %MON surfExpan_theta_mean         =   1.8683808122707E-02
(PID.TID 0000.0001) %MON surfExpan_salt_mean          =  -1.2942964596673E-05
(PID.TID 0000.0001) %MON surfExpan_Heat_mean          =   2.3466545367175E+00
(PID.TID 0000.0001) %MON En_Budget_T2PE_mean          =  -4.8403497132742E-02
(PID.TID 0000.0001) // =======================================================
(PID.TID 0000.0001) // End MONITOR dynamic field statistics
(PID.TID 0000.0001) // =======================================================
 Current Date     20040321 Current Time         2200
 cg2d: Sum(rhs),rhsMax =  -1.39698386192322E-09  1.83076639797981E+04
(PID.TID 0000.0001)                    cg2d_init_res =    4.31659771424530E+04
(PID.TID 0000.0001)                       cg2d_iters =     7
(PID.TID 0000.0001)                         cg2d_res =    1.03219599100436E-11
(PID.TID 0000.0001) // =======================================================
(PID.TID 0000.0001) // Begin MONITOR dynamic field statistics
(PID.TID 0000.0001) // =======================================================
(PID.TID 0000.0001) %MON time_tsnumber                =                    11
(PID.TID 0000.0001) %MON time_secondsf                =   1.3200000000000E+03
(PID.TID 0000.0001) %MON dynstat_eta_max              =   1.9598150397999E+02
(PID.TID 0000.0001) %MON dynstat_eta_min              =  -3.5578089957781E+02
(PID.TID 0000.0001) %MON dynstat_eta_mean             =  -5.5633736177965E-15
(PID.TID 0000.0001) %MON dynstat_eta_sd               =   6.2708263975757E+01
(PID.TID 0000.0001) %MON dynstat_eta_del2             =   1.0276426375075E+01
(PID.TID 0000.0001) %MON dynstat_uvel_max             =   4.1505887147357E+01
(PID.TID 0000.0001) %MON dynstat_uvel_min             =  -3.7166581795276E+01
(PID.TID 0000.0001) %MON dynstat_uvel_mean            =   1.6983816013095E+00
(PID.TID 0000.0001) %MON dynstat_uvel_sd              =   7.8544076817270E+00
(PID.TID 0000.0001) %MON dynstat_uvel_del2            =   3.1292997412347E-01
(PID.TID 0000.0001) %MON dynstat_vvel_max             =   3.8095319826890E+01
(PID.TID 0000.0001) %MON dynstat_vvel_min             =  -3.2917663581507E+01
(PID.TID 0000.0001) %MON dynstat_vvel_mean            =   1.6791478213205E+00
(PID.TID 0000.0001) %MON dynstat_vvel_sd              =   7.8582582663478E+00
(PID.TID 0000.0001) %MON dynstat_vvel_del2            =   3.1691868340952E-01
(PID.TID 0000.0001) %MON dynstat_wvel_max             =   3.0342779455408E-01
(PID.TID 0000.0001) %MON dynstat_wvel_min             =  -2.9985648015646E-01
(PID.TID 0000.0001) %MON dynstat_wvel_mean            =   3.5025818335486E-18
(PID.TID 0000.0001) %MON dynstat_wvel_sd              =   2.6807043646208E-02
(PID.TID 0000.0001) %MON dynstat_wvel_del2            =   7.0931685041723E-03
(PID.TID 0000.0001) %MON dynstat_theta_max            =   4.8694331314395E+02
(PID.TID 0000.0001) %MON dynstat_theta_min            =   2.6912953911399E+02
(PID.TID 0000.0001) %MON dynstat_theta_mean           =   3.2514635000079E+02
(PID.TID 0000.0001) %MON dynstat_theta_sd             =   4.8132741829336E+01
(PID.TID 0000.0001) %MON dynstat_theta_del2           =   9.9709146186163E-02
(PID.TID 0000.0001) %MON dynstat_salt_max             =   2.8511749123090E-02
(PID.TID 0000.0001) %MON dynstat_salt_min             =  -3.9897804866403E-09
(PID.TID 0000.0001) %MON dynstat_salt_mean            =   2.6648735691927E-03
(PID.TID 0000.0001) %MON dynstat_salt_sd              =   4.3433277473031E-03
(PID.TID 0000.0001) %MON dynstat_salt_del2            =   5.0717364515648E-05
(PID.TID 0000.0001) %MON advcfl_uvel_max              =   3.1653484446495E-02
(PID.TID 0000.0001) %MON advcfl_vvel_max              =   3.5144688237835E-02
(PID.TID 0000.0001) %MON advcfl_wvel_max              =   7.2044589130371E-03
(PID.TID 0000.0001) %MON advcfl_W_hf_max              =   7.1959846780870E-03
(PID.TID 0000.0001) %MON pe_b_mean                    =   1.5836299949157E-02
(PID.TID 0000.0001) %MON ke_max                       =   8.5709769759077E+02
(PID.TID 0000.0001) %MON ke_mean                      =   6.4573990241728E+01
(PID.TID 0000.0001) %MON ke_vol                       =   5.1537074390047E+19
(PID.TID 0000.0001) %MON vort_r_min                   =  -4.8227506739609E-05
(PID.TID 0000.0001) %MON vort_r_max                   =   5.4647133631628E-05
(PID.TID 0000.0001) %MON vort_a_mean                  =  -9.2156209540793E-20
(PID.TID 0000.0001) %MON vort_a_sd                    =   8.5817863117859E-05
(PID.TID 0000.0001) %MON vort_p_mean                  =  -9.7006513006086E-20
(PID.TID 0000.0001) %MON vort_p_sd                    =   8.5821433343407E-05
(PID.TID 0000.0001) %MON surfExpan_theta_mean         =   2.1362882704619E-02
(PID.TID 0000.0001) %MON surfExpan_salt_mean          =  -1.4042733297853E-05
(PID.TID 0000.0001) %MON surfExpan_Heat_mean          =   2.6490328217504E+00
(PID.TID 0000.0001) %MON En_Budget_T2PE_mean          =  -3.2203895432817E-02
(PID.TID 0000.0001) // =======================================================
(PID.TID 0000.0001) // End MONITOR dynamic field statistics
(PID.TID 0000.0001) // =======================================================
 Current Date     20040321 Current Time         2400
 cg2d: Sum(rhs),rhsMax =  -9.31322574615479E-10  2.11015132430795E+04
(PID.TID 0000.0001)                    cg2d_init_res =    4.58269039004330E+04
(PID.TID 0000.0001)                       cg2d_iters =     7
(PID.TID 0000.0001)                         cg2d_res =    1.13151591040034E-11
(PID.TID 0000.0001) // =======================================================
(PID.TID 0000.0001) // Begin MONITOR dynamic field statistics
(PID.TID 0000.0001) // =======================================================
(PID.TID 0000.0001) %MON time_tsnumber                =                    12
(PID.TID 0000.0001) %MON time_secondsf                =   1.4400000000000E+03
(PID.TID 0000.0001) %MON dynstat_eta_max              =   2.1848207500401E+02
(PID.TID 0000.0001) %MON dynstat_eta_min              =  -4.0619441732786E+02
(PID.TID 0000.0001) %MON dynstat_eta_mean             =   7.9476765968521E-15
(PID.TID 0000.0001) %MON dynstat_eta_sd               =   7.2844627829477E+01
(PID.TID 0000.0001) %MON dynstat_eta_del2             =   1.1189115892540E+01
(PID.TID 0000.0001) %MON dynstat_uvel_max             =   4.1496607228177E+01
(PID.TID 0000.0001) %MON dynstat_uvel_min             =  -3.7186205682779E+01
(PID.TID 0000.0001) %MON dynstat_uvel_mean            =   1.6980037513699E+00
(PID.TID 0000.0001) %MON dynstat_uvel_sd              =   7.8521442921077E+00
(PID.TID 0000.0001) %MON dynstat_uvel_del2            =   3.1278963553026E-01
(PID.TID 0000.0001) %MON dynstat_vvel_max             =   3.8077648210316E+01
(PID.TID 0000.0001) %MON dynstat_vvel_min             =  -3.2898930170903E+01
(PID.TID 0000.0001) %MON dynstat_vvel_mean            =   1.6797603754740E+00
(PID.TID 0000.0001) %MON dynstat_vvel_sd              =   7.8580721581800E+00
(PID.TID 0000.0001) %MON dynstat_vvel_del2            =   3.1677741687250E-01
(PID.TID 0000.0001) %MON dynstat_wvel_max             =   3.1992700437471E-01
(PID.TID 0000.0001) %MON dynstat_wvel_min             =  -3.1255339333873E-01
(PID.TID 0000.0001) %MON dynstat_wvel_mean            =   2.8657487729034E-18
(PID.TID 0000.0001) %MON dynstat_wvel_sd              =   2.6870763260540E-02
(PID.TID 0000.0001) %MON dynstat_wvel_del2            =   7.1455761478382E-03
(PID.TID 0000.0001) %MON dynstat_theta_max            =   4.8704073418243E+02
(PID.TID 0000.0001) %MON dynstat_theta_min            =   2.6913123560860E+02
(PID.TID 0000.0001) %MON dynstat_theta_mean           =   3.2515685049245E+02
(PID.TID 0000.0001) %MON dynstat_theta_sd             =   4.8171003069502E+01
(PID.TID 0000.0001) %MON dynstat_theta_del2           =   9.9925777134818E-02
(PID.TID 0000.0001) %MON dynstat_salt_max             =   2.8454122340250E-02
(PID.TID 0000.0001) %MON dynstat_salt_min             =  -4.2793746277061E-09
(PID.TID 0000.0001) %MON dynstat_salt_mean            =   2.6649206943923E-03
(PID.TID 0000.0001) %MON dynstat_salt_sd              =   4.3363283853881E-03
(PID.TID 0000.0001) %MON dynstat_salt_del2            =   5.1777864287394E-05
(PID.TID 0000.0001) %MON advcfl_uvel_max              =   3.1650906762662E-02
(PID.TID 0000.0001) %MON advcfl_vvel_max              =   3.5121514723903E-02
(PID.TID 0000.0001) %MON advcfl_wvel_max              =   7.5962090472823E-03
(PID.TID 0000.0001) %MON advcfl_W_hf_max              =   7.5863506296215E-03
(PID.TID 0000.0001) %MON pe_b_mean                    =   2.1369739140946E-02
(PID.TID 0000.0001) %MON ke_max                       =   8.5709512895891E+02
(PID.TID 0000.0001) %MON ke_mean                      =   6.4555139832229E+01
(PID.TID 0000.0001) %MON ke_vol                       =   5.1537074390047E+19
(PID.TID 0000.0001) %MON vort_r_min                   =  -4.8211582967807E-05
(PID.TID 0000.0001) %MON vort_r_max                   =   5.4667796246312E-05
(PID.TID 0000.0001) %MON vort_a_mean                  =  -1.8431241908159E-19
(PID.TID 0000.0001) %MON vort_a_sd                    =   8.5817062724111E-05
(PID.TID 0000.0001) %MON vort_p_mean                  =  -1.7946204128250E-19
(PID.TID 0000.0001) %MON vort_p_sd                    =   8.5821344861299E-05
(PID.TID 0000.0001) %MON surfExpan_theta_mean         =   2.4130292543442E-02
(PID.TID 0000.0001) %MON surfExpan_salt_mean          =  -1.5105085768927E-05
(PID.TID 0000.0001) %MON surfExpan_Heat_mean          =   2.9574088902730E+00
(PID.TID 0000.0001) %MON En_Budget_T2PE_mean          =  -1.6360828529594E-02
(PID.TID 0000.0001) // =======================================================
(PID.TID 0000.0001) // End MONITOR dynamic field statistics
(PID.TID 0000.0001) // =======================================================
 Current Date     20040321 Current Time         2600
 cg2d: Sum(rhs),rhsMax =   1.86264514923096E-09  2.39831280386980E+04
(PID.TID 0000.0001)                    cg2d_init_res =    4.83265575273398E+04
(PID.TID 0000.0001)                       cg2d_iters =     7
(PID.TID 0000.0001)                         cg2d_res =    1.22924532745968E-11
(PID.TID 0000.0001) // =======================================================
(PID.TID 0000.0001) // Begin MONITOR dynamic field statistics
(PID.TID 0000.0001) // =======================================================
(PID.TID 0000.0001) %MON time_tsnumber                =                    13
(PID.TID 0000.0001) %MON time_secondsf                =   1.5600000000000E+03
(PID.TID 0000.0001) %MON dynstat_eta_max              =   2.4638464264801E+02
(PID.TID 0000.0001) %MON dynstat_eta_min              =  -4.5717028309944E+02
(PID.TID 0000.0001) %MON dynstat_eta_mean             =  -7.9476765968521E-16
(PID.TID 0000.0001) %MON dynstat_eta_sd               =   8.3506560398965E+01
(PID.TID 0000.0001) %MON dynstat_eta_del2             =   1.2002056320916E+01
(PID.TID 0000.0001) %MON dynstat_uvel_max             =   4.1488880488528E+01
(PID.TID 0000.0001) %MON dynstat_uvel_min             =  -3.7204039629074E+01
(PID.TID 0000.0001) %MON dynstat_uvel_mean            =   1.6976456502954E+00
(PID.TID 0000.0001) %MON dynstat_uvel_sd              =   7.8497802722446E+00
(PID.TID 0000.0001) %MON dynstat_uvel_del2            =   3.1260844326539E-01
(PID.TID 0000.0001) %MON dynstat_vvel_max             =   3.8060288567262E+01
(PID.TID 0000.0001) %MON dynstat_vvel_min             =  -3.2877125180145E+01
(PID.TID 0000.0001) %MON dynstat_vvel_mean            =   1.6803751081247E+00
(PID.TID 0000.0001) %MON dynstat_vvel_sd              =   7.8576983933411E+00
(PID.TID 0000.0001) %MON dynstat_vvel_del2            =   3.1661761693059E-01
(PID.TID 0000.0001) %MON dynstat_wvel_max             =   3.3446181565505E-01
(PID.TID 0000.0001) %MON dynstat_wvel_min             =  -3.2352883892174E-01
(PID.TID 0000.0001) %MON dynstat_wvel_mean            =   4.1394148941938E-18
(PID.TID 0000.0001) %MON dynstat_wvel_sd              =   2.6932405099341E-02
(PID.TID 0000.0001) %MON dynstat_wvel_del2            =   7.1919043360211E-03
(PID.TID 0000.0001) %MON dynstat_theta_max            =   4.8713792618600E+02
(PID.TID 0000.0001) %MON dynstat_theta_min            =   2.6913293169858E+02
(PID.TID 0000.0001) %MON dynstat_theta_mean           =   3.2516732052702E+02
(PID.TID 0000.0001) %MON dynstat_theta_sd             =   4.8209299216066E+01
(PID.TID 0000.0001) %MON dynstat_theta_del2           =   1.0016139272079E-01
(PID.TID 0000.0001) %MON dynstat_salt_max             =   2.8403669124155E-02
(PID.TID 0000.0001) %MON dynstat_salt_min             =  -4.5428546726140E-09
(PID.TID 0000.0001) %MON dynstat_salt_mean            =   2.6649653213940E-03
(PID.TID 0000.0001) %MON dynstat_salt_sd              =   4.3285022179351E-03
(PID.TID 0000.0001) %MON dynstat_salt_del2            =   5.2768568623205E-05
(PID.TID 0000.0001) %MON advcfl_uvel_max              =   3.1644635024831E-02
(PID.TID 0000.0001) %MON advcfl_vvel_max              =   3.5098037203718E-02
(PID.TID 0000.0001) %MON advcfl_wvel_max              =   7.9413173483590E-03
(PID.TID 0000.0001) %MON advcfl_W_hf_max              =   7.9299568948744E-03
(PID.TID 0000.0001) %MON pe_b_mean                    =   2.8083119920835E-02
(PID.TID 0000.0001) %MON ke_max                       =   8.5709908624110E+02
(PID.TID 0000.0001) %MON ke_mean                      =   6.4534067784262E+01
(PID.TID 0000.0001) %MON ke_vol                       =   5.1537074390047E+19
(PID.TID 0000.0001) %MON vort_r_min                   =  -4.8194972272474E-05
(PID.TID 0000.0001) %MON vort_r_max                   =   5.4688076000906E-05
(PID.TID 0000.0001) %MON vort_a_mean                  =   1.2125817044841E-20
(PID.TID 0000.0001) %MON vort_a_sd                    =   8.5816196757312E-05
(PID.TID 0000.0001) %MON vort_p_mean                  =   1.2125813036000E-20
(PID.TID 0000.0001) %MON vort_p_sd                    =   8.5821247531429E-05
(PID.TID 0000.0001) %MON surfExpan_theta_mean         =   2.6983778911808E-02
(PID.TID 0000.0001) %MON surfExpan_salt_mean          =  -1.6131224469928E-05
(PID.TID 0000.0001) %MON surfExpan_Heat_mean          =   3.2713344247908E+00
(PID.TID 0000.0001) %MON En_Budget_T2PE_mean          =  -9.0779339160681E-04
(PID.TID 0000.0001) // =======================================================
(PID.TID 0000.0001) // End MONITOR dynamic field statistics
(PID.TID 0000.0001) // =======================================================
 Current Date     20040321 Current Time         2800
 cg2d: Sum(rhs),rhsMax =   4.19095158576965E-09  2.69323461109968E+04
(PID.TID 0000.0001)                    cg2d_init_res =    5.06827844002150E+04
(PID.TID 0000.0001)                       cg2d_iters =     7
(PID.TID 0000.0001)                         cg2d_res =    1.35350042714510E-11
(PID.TID 0000.0001) // =======================================================
(PID.TID 0000.0001) // Begin MONITOR dynamic field statistics
(PID.TID 0000.0001) // =======================================================
(PID.TID 0000.0001) %MON time_tsnumber                =                    14
(PID.TID 0000.0001) %MON time_secondsf                =   1.6800000000000E+03
(PID.TID 0000.0001) %MON dynstat_eta_max              =   2.7795218203273E+02
(PID.TID 0000.0001) %MON dynstat_eta_min              =  -5.0827548449448E+02
(PID.TID 0000.0001) %MON dynstat_eta_mean             =  -1.2716282554963E-14
(PID.TID 0000.0001) %MON dynstat_eta_sd               =   9.4656613543605E+01
(PID.TID 0000.0001) %MON dynstat_eta_del2             =   1.2707172865546E+01
(PID.TID 0000.0001) %MON dynstat_uvel_max             =   4.1482625483103E+01
(PID.TID 0000.0001) %MON dynstat_uvel_min             =  -3.7219975599056E+01
(PID.TID 0000.0001) %MON dynstat_uvel_mean            =   1.6973087838709E+00
(PID.TID 0000.0001) %MON dynstat_uvel_sd              =   7.8473293125235E+00
(PID.TID 0000.0001) %MON dynstat_uvel_del2            =   3.1246467626323E-01
(PID.TID 0000.0001) %MON dynstat_vvel_max             =   3.8043225562241E+01
(PID.TID 0000.0001) %MON dynstat_vvel_min             =  -3.2852369564461E+01
(PID.TID 0000.0001) %MON dynstat_vvel_mean            =   1.6809928577746E+00
(PID.TID 0000.0001) %MON dynstat_vvel_sd              =   7.8571500432415E+00
(PID.TID 0000.0001) %MON dynstat_vvel_del2            =   3.1647960098867E-01
(PID.TID 0000.0001) %MON dynstat_wvel_max             =   3.4678595670537E-01
(PID.TID 0000.0001) %MON dynstat_wvel_min             =  -3.3244137349000E-01
(PID.TID 0000.0001) %MON dynstat_wvel_mean            =   1.4647160394840E-17
(PID.TID 0000.0001) %MON dynstat_wvel_sd              =   2.6992848452734E-02
(PID.TID 0000.0001) %MON dynstat_wvel_del2            =   7.2315742061072E-03
(PID.TID 0000.0001) %MON dynstat_theta_max            =   4.8723486096013E+02
(PID.TID 0000.0001) %MON dynstat_theta_min            =   2.6913462771640E+02
(PID.TID 0000.0001) %MON dynstat_theta_mean           =   3.2517779121425E+02
(PID.TID 0000.0001) %MON dynstat_theta_sd             =   4.8247647518519E+01
(PID.TID 0000.0001) %MON dynstat_theta_del2           =   1.0060656502281E-01
(PID.TID 0000.0001) %MON dynstat_salt_max             =   2.8353476210323E-02
(PID.TID 0000.0001) %MON dynstat_salt_min             =  -4.7863242919709E-09
(PID.TID 0000.0001) %MON dynstat_salt_mean            =   2.6650098839588E-03
(PID.TID 0000.0001) %MON dynstat_salt_sd              =   4.3209322786125E-03
(PID.TID 0000.0001) %MON dynstat_salt_del2            =   5.4046558572944E-05
(PID.TID 0000.0001) %MON advcfl_uvel_max              =   3.1634553704009E-02
(PID.TID 0000.0001) %MON advcfl_vvel_max              =   3.5074541492527E-02
(PID.TID 0000.0001) %MON advcfl_wvel_max              =   8.2339364472981E-03
(PID.TID 0000.0001) %MON advcfl_W_hf_max              =   8.2209789511464E-03
(PID.TID 0000.0001) %MON pe_b_mean                    =   3.6083286713750E-02
(PID.TID 0000.0001) %MON ke_max                       =   8.5711362603459E+02
(PID.TID 0000.0001) %MON ke_mean                      =   6.4510989072829E+01
(PID.TID 0000.0001) %MON ke_vol                       =   5.1537074390047E+19
(PID.TID 0000.0001) %MON vort_r_min                   =  -4.8177743934374E-05
(PID.TID 0000.0001) %MON vort_r_max                   =   5.4707987297519E-05
(PID.TID 0000.0001) %MON vort_a_mean                  =   7.5180065678016E-20
(PID.TID 0000.0001) %MON vort_a_sd                    =   8.5815292072016E-05
(PID.TID 0000.0001) %MON vort_p_mean                  =   7.7605199572886E-20
(PID.TID 0000.0001) %MON vort_p_sd                    =   8.5821165981627E-05
(PID.TID 0000.0001) %MON surfExpan_theta_mean         =   2.9917294533176E-02
(PID.TID 0000.0001) %MON surfExpan_salt_mean          =  -1.7122604361946E-05
(PID.TID 0000.0001) %MON surfExpan_Heat_mean          =   3.5903034699601E+00
(PID.TID 0000.0001) %MON En_Budget_T2PE_mean          =   1.4215425008891E-02
(PID.TID 0000.0001) // =======================================================
(PID.TID 0000.0001) // End MONITOR dynamic field statistics
(PID.TID 0000.0001) // =======================================================
 Current Date     20040321 Current Time         3000
 cg2d: Sum(rhs),rhsMax =   9.31322574615479E-10  2.99306385440990E+04
(PID.TID 0000.0001)                    cg2d_init_res =    5.29109743609080E+04
(PID.TID 0000.0001)                       cg2d_iters =     7
(PID.TID 0000.0001)                         cg2d_res =    1.48737653903639E-11
(PID.TID 0000.0001) // =======================================================
(PID.TID 0000.0001) // Begin MONITOR dynamic field statistics
(PID.TID 0000.0001) // =======================================================
(PID.TID 0000.0001) %MON time_tsnumber                =                    15
(PID.TID 0000.0001) %MON time_secondsf                =   1.8000000000000E+03
(PID.TID 0000.0001) %MON dynstat_eta_max              =   3.1029201355216E+02
(PID.TID 0000.0001) %MON dynstat_eta_min              =  -5.5914147350565E+02
(PID.TID 0000.0001) %MON dynstat_eta_mean             =  -1.5895353193704E-15
(PID.TID 0000.0001) %MON dynstat_eta_sd               =   1.0626123050721E+02
(PID.TID 0000.0001) %MON dynstat_eta_del2             =   1.3303712307811E+01
(PID.TID 0000.0001) %MON dynstat_uvel_max             =   4.1477733004658E+01
(PID.TID 0000.0001) %MON dynstat_uvel_min             =  -3.7233909141432E+01
(PID.TID 0000.0001) %MON dynstat_uvel_mean            =   1.6969922836301E+00
(PID.TID 0000.0001) %MON dynstat_uvel_sd              =   7.8447517824252E+00
(PID.TID 0000.0001) %MON dynstat_uvel_del2            =   3.1228096753109E-01
(PID.TID 0000.0001) %MON dynstat_vvel_max             =   3.8026393462118E+01
(PID.TID 0000.0001) %MON dynstat_vvel_min             =  -3.2824802349270E+01
(PID.TID 0000.0001) %MON dynstat_vvel_mean            =   1.6816110634513E+00
(PID.TID 0000.0001) %MON dynstat_vvel_sd              =   7.8563792803225E+00
(PID.TID 0000.0001) %MON dynstat_vvel_del2            =   3.1629773561426E-01
(PID.TID 0000.0001) %MON dynstat_wvel_max             =   3.5673238622299E-01
(PID.TID 0000.0001) %MON dynstat_wvel_min             =  -3.3904130096612E-01
(PID.TID 0000.0001) %MON dynstat_wvel_mean            =   8.1196215232263E-18
(PID.TID 0000.0001) %MON dynstat_wvel_sd              =   2.7048527873525E-02
(PID.TID 0000.0001) %MON dynstat_wvel_del2            =   7.2622681753656E-03
(PID.TID 0000.0001) %MON dynstat_theta_max            =   4.8733196011712E+02
(PID.TID 0000.0001) %MON dynstat_theta_min            =   2.6913632189111E+02
(PID.TID 0000.0001) %MON dynstat_theta_mean           =   3.2518820723047E+02
(PID.TID 0000.0001) %MON dynstat_theta_sd             =   4.8286026396977E+01
(PID.TID 0000.0001) %MON dynstat_theta_del2           =   1.0102078410562E-01
(PID.TID 0000.0001) %MON dynstat_salt_max             =   2.8308795937465E-02
(PID.TID 0000.0001) %MON dynstat_salt_min             =  -5.0166320581822E-09
(PID.TID 0000.0001) %MON dynstat_salt_mean            =   2.6650522459335E-03
(PID.TID 0000.0001) %MON dynstat_salt_sd              =   4.3121309552152E-03
(PID.TID 0000.0001) %MON dynstat_salt_del2            =   5.5163149873498E-05
(PID.TID 0000.0001) %MON advcfl_uvel_max              =   3.1621049764169E-02
(PID.TID 0000.0001) %MON advcfl_vvel_max              =   3.5051377168868E-02
(PID.TID 0000.0001) %MON advcfl_wvel_max              =   8.4701001873286E-03
(PID.TID 0000.0001) %MON advcfl_W_hf_max              =   8.4554852640545E-03
(PID.TID 0000.0001) %MON pe_b_mean                    =   4.5473024893018E-02
(PID.TID 0000.0001) %MON ke_max                       =   8.5714241555656E+02
(PID.TID 0000.0001) %MON ke_mean                      =   6.4485212183286E+01
(PID.TID 0000.0001) %MON ke_vol                       =   5.1537074390047E+19
(PID.TID 0000.0001) %MON vort_r_min                   =  -4.8159962499001E-05
(PID.TID 0000.0001) %MON vort_r_max                   =   5.4727545123900E-05
(PID.TID 0000.0001) %MON vort_a_mean                  =   1.6733627521881E-19
(PID.TID 0000.0001) %MON vort_a_sd                    =   8.5814318568553E-05
(PID.TID 0000.0001) %MON vort_p_mean                  =   1.6733620273555E-19
(PID.TID 0000.0001) %MON vort_p_sd                    =   8.5821067868741E-05
(PID.TID 0000.0001) %MON surfExpan_theta_mean         =   3.2928040012884E-02
(PID.TID 0000.0001) %MON surfExpan_salt_mean          =  -1.8080491576047E-05
(PID.TID 0000.0001) %MON surfExpan_Heat_mean          =   3.9136844491414E+00
(PID.TID 0000.0001) %MON En_Budget_T2PE_mean          =   2.8953277731539E-02
(PID.TID 0000.0001) // =======================================================
(PID.TID 0000.0001) // End MONITOR dynamic field statistics
(PID.TID 0000.0001) // =======================================================
 Computing Diagnostic # 210  RADSWT       Counter:      15   Parms: SM      U1      
 Computing Diagnostic # 233  OSR          Counter:      15   Parms: SM      U1      
 Computing Diagnostic # 199  OLR          Counter:       1   Parms: SM      U1      
 Computing Diagnostic # 372  PLALBEDO     Counter:      15   Parms: SM      L1      
 Computing Diagnostic # 263  CLDFRC       Counter:       1   Parms: SM P    M1      
 Computing Diagnostic # 183  PREACC       Counter:       3   Parms: SM      L1      
 Computing Diagnostic # 184  PRECON       Counter:       3   Parms: SM      L1      
 Computing Diagnostic # 214  EVAP         Counter:       8   Parms: SM      L1      
 Computing Diagnostic # 167  RADSWG       Counter:      15   Parms: SM      L1      
 Computing Diagnostic # 343  ALBNIRDF     Counter:       1   Parms: SM      L1      
 Computing Diagnostic # 341  ALBVISDF     Counter:       1   Parms: SM      L1      
 Computing Diagnostic # 208  LWGDOWN      Counter:       8   Parms: SM      L1      
 Computing Diagnostic # 198  LWGUP        Counter:      15   Parms: SM      L1      
 Computing Diagnostic # 162  EFLUX        Counter:       8   Parms: SM      L1      
 Computing Diagnostic # 161  HFLUX        Counter:       8   Parms: SM      L1      
 Computing Diagnostic # 267  T2M          Counter:       8   Parms: SM      M1      
 Computing Diagnostic # 268  Q2M          Counter:       8   Parms: SM P    M1      
 Computing Diagnostic # 163  UFLUX        Counter:       8   Parms: UM   164L1      
           Vector  Mate for  UFLUX        Diagnostic # 164  VFLUX    exists 
 Computing Diagnostic # 164  VFLUX        Counter:       8   Parms: VM   163L1      
           Vector  Mate for  VFLUX        Diagnostic # 163  UFLUX    exists 
 Computing Diagnostic # 269  U10M         Counter:       8   Parms: UM   270M1      
           Vector  Mate for  U10M         Diagnostic # 270  V10M     exists 
 Computing Diagnostic # 270  V10M         Counter:       8   Parms: VM   269M1      
           Vector  Mate for  V10M         Diagnostic # 269  U10M     exists 
 Computing Diagnostic # 241  PS           Counter:      15   Parms: SM      L1      
 Computing Diagnostic # 234  OSRCLR       Counter:      15   Parms: SM      U1      
 Computing Diagnostic # 200  OLRCLR       Counter:       1   Parms: SM      U1      
 Computing Diagnostic # 244  SWGCLR       Counter:      15   Parms: SM      L1      
 Computing Diagnostic # 201  LWGCLR       Counter:      15   Parms: SM      L1      
 Computing Diagnostic #  86  RSURF        Counter:      15   Parms: SM      M1      
 Computing Diagnostic #  29  UVEL         Counter:      15   Parms: UU   030MR      
           Vector  Mate for  UVEL         Diagnostic #  30  VVEL     exists 
 Computing Diagnostic #  30  VVEL         Counter:      15   Parms: VV   029MR      
           Vector  Mate for  VVEL         Diagnostic #  29  UVEL     exists 
 Computing Diagnostic #  63  PHIHYD       Counter:      15   Parms: SM      MR      
 Computing Diagnostic #  31  WVEL         Counter:      15   Parms: WM      LR      
 Computing Diagnostic #  27  SALT         Counter:      15   Parms: SM      MR      
 Computing Diagnostic #  28  RELHUM       Counter:      15   Parms: SM      MR      
 Computing Diagnostic #  85  RCENTER      Counter:      15   Parms: SM      MR      
 Computing Diagnostic #  26  THETA        Counter:      15   Parms: SM      MR      
 Computing Diagnostic #  34  UVELSQ       Counter:      15   Parms: UU   035MR      
           Vector  Mate for  UVELSQ       Diagnostic #  35  VVELSQ   exists 
 Computing Diagnostic #  35  VVELSQ       Counter:      15   Parms: VV   034MR      
           Vector  Mate for  VVELSQ       Diagnostic #  34  UVELSQ   exists 
 Computing Diagnostic #  32  THETASQ      Counter:      15   Parms: SM      MR      
 Computing Diagnostic #  36  WVELSQ       Counter:      15   Parms: WM      LR      
 Computing Diagnostic #  64  PHIHYDSQ     Counter:      15   Parms: SM      MR      
 Computing Diagnostic #  33  SALTSQ       Counter:      15   Parms: SM      MR      
 Computing Diagnostic #  37  UV_VEL_C     Counter:      15   Parms: UM   037MR      
           Vector  Mate for  UV_VEL_C     Diagnostic #  37  UV_VEL_C exists 
 Computing Diagnostic #  39  WU_VEL       Counter:      15   Parms: WU      LR      
 Computing Diagnostic #  40  WV_VEL       Counter:      15   Parms: WV      LR      
 Computing Diagnostic #  51  VVELTH       Counter:      15   Parms: VV   050MR      
           Vector  Mate for  VVELTH       Diagnostic #  50  UVELTH   exists 
 Computing Diagnostic #  52  WVELTH       Counter:      15   Parms: WM      LR      
 Computing Diagnostic #  54  VVELSLT      Counter:      15   Parms: VV   053MR      
           Vector  Mate for  VVELSLT      Diagnostic #  53  UVELSLT  exists 
 Computing Diagnostic #  55  WVELSLT      Counter:      15   Parms: WM      LR      
 Computing Diagnostic #  53  UVELSLT      Counter:      15   Parms: UU   054MR      
           Vector  Mate for  UVELSLT      Diagnostic #  54  VVELSLT  exists 
 Computing Diagnostic #  50  UVELTH       Counter:      15   Parms: UU   051MR      
           Vector  Mate for  UVELTH       Diagnostic #  51  VVELTH   exists 
 Computing Diagnostic #  56  UVELPHI      Counter:      15   Parms: UU   057MR      
           Vector  Mate for  UVELPHI      Diagnostic #  57  VVELPHI  exists 
 Computing Diagnostic #  57  VVELPHI      Counter:      15   Parms: VV   056MR      
           Vector  Mate for  VVELPHI      Diagnostic #  56  UVELPHI  exists 
 Compute Stats, Diag. # 210  RADSWT    vol(  0 ): 7.648E+15  Parms: SM      U1      
 Compute Stats, Diag. # 233  OSR       vol(  0 ): 7.648E+15  Parms: SM      U1      
 Compute Stats, Diag. # 199  OLR       vol(  0 ): 5.099E+14  Parms: SM      U1      
 Compute Stats, Diag. # 372  PLALBEDO  vol(  0 ): 7.648E+15  Parms: SM      L1      
 Compute Stats, Diag. # 263  CLDFRC    vol(  0 ): 5.099E+14  Parms: SM P    M1      
 Compute Stats, Diag. # 183  PREACC    vol(  0 ): 1.530E+15  Parms: SM      L1      
 Compute Stats, Diag. # 184  PRECON    vol(  0 ): 1.530E+15  Parms: SM      L1      
 Compute Stats, Diag. # 214  EVAP      vol(  0 ): 4.079E+15  Parms: SM      L1      
 Compute Stats, Diag. # 167  RADSWG    vol(  0 ): 7.648E+15  Parms: SM      L1      
 Compute Stats, Diag. # 343  ALBNIRDF  vol(  0 ): 5.099E+14  Parms: SM      L1      
 Compute Stats, Diag. # 341  ALBVISDF  vol(  0 ): 5.099E+14  Parms: SM      L1      
 Compute Stats, Diag. # 208  LWGDOWN   vol(  0 ): 4.079E+15  Parms: SM      L1      
 Compute Stats, Diag. # 198  LWGUP     vol(  0 ): 7.648E+15  Parms: SM      L1      
 Compute Stats, Diag. # 162  EFLUX     vol(  0 ): 4.079E+15  Parms: SM      L1      
 Compute Stats, Diag. # 161  HFLUX     vol(  0 ): 4.079E+15  Parms: SM      L1      
 Compute Stats, Diag. # 267  T2M       vol(  0 ): 4.079E+15  Parms: SM      M1      
 Compute Stats, Diag. # 268  Q2M       vol(  0 ): 4.079E+15  Parms: SM P    M1      
 Compute Stats, Diag. # 163  UFLUX     vol(  0 ): 4.079E+15  Parms: UM   164L1      
 Compute Stats, Diag. # 164  VFLUX     vol(  0 ): 4.079E+15  Parms: VM   163L1      
 Compute Stats, Diag. # 269  U10M      vol(  0 ): 4.079E+15  Parms: UM   270M1      
 Compute Stats, Diag. # 270  V10M      vol(  0 ): 4.079E+15  Parms: VM   269M1      
 Compute Stats, Diag. # 241  PS        vol(  0 ): 7.648E+15  Parms: SM      L1      
 Compute Stats, Diag. # 234  OSRCLR    vol(  0 ): 7.648E+15  Parms: SM      U1      
 Compute Stats, Diag. # 200  OLRCLR    vol(  0 ): 5.099E+14  Parms: SM      U1      
 Compute Stats, Diag. # 244  SWGCLR    vol(  0 ): 7.648E+15  Parms: SM      L1      
 Compute Stats, Diag. # 201  LWGCLR    vol(  0 ): 7.648E+15  Parms: SM      L1      
  Writing datetime file: NYMD =     20040321 NHMS =         3000
(PID.TID 0000.0001) %CHECKPOINT        15 ckptA
(PID.TID 0000.0001)  Seconds in section "ALL                    [THE_MODEL_MAIN]":
(PID.TID 0000.0001)          User time:   125.9599990844727
(PID.TID 0000.0001)        System time:   8.659999847412109
(PID.TID 0000.0001)    Wall clock time:   144.1235010623932
(PID.TID 0000.0001)         No. starts:           1
(PID.TID 0000.0001)          No. stops:           1
(PID.TID 0000.0001)  Seconds in section "INITIALISE_FIXED       [THE_MODEL_MAIN]":
(PID.TID 0000.0001)          User time:  0.7999999523162842
(PID.TID 0000.0001)        System time:  0.1700000017881393
(PID.TID 0000.0001)    Wall clock time:   1.296633958816528
(PID.TID 0000.0001)         No. starts:           1
(PID.TID 0000.0001)          No. stops:           1
(PID.TID 0000.0001)  Seconds in section "GRIDALT_INITIALISE  [PACKAGES_INIT_F]":
(PID.TID 0000.0001)          User time:  1.9999980926513672E-002
(PID.TID 0000.0001)        System time:  0.0000000000000000E+000
(PID.TID 0000.0001)    Wall clock time:  2.6856899261474609E-002
(PID.TID 0000.0001)         No. starts:           1
(PID.TID 0000.0001)          No. stops:           1
(PID.TID 0000.0001)  Seconds in section "THE_MAIN_LOOP          [THE_MODEL_MAIN]":
(PID.TID 0000.0001)          User time:   124.3599960803986
(PID.TID 0000.0001)        System time:   8.019999578595161
(PID.TID 0000.0001)    Wall clock time:   134.4196829795837
(PID.TID 0000.0001)         No. starts:           1
(PID.TID 0000.0001)          No. stops:           1
(PID.TID 0000.0001)  Seconds in section "INITIALISE_VARIA    [THE_MAIN_LOOP]":
(PID.TID 0000.0001)          User time:   1.430000066757202
(PID.TID 0000.0001)        System time:  0.4899999648332596
(PID.TID 0000.0001)    Wall clock time:   2.212008953094482
(PID.TID 0000.0001)         No. starts:           1
(PID.TID 0000.0001)          No. stops:           1
(PID.TID 0000.0001)  Seconds in section "GRIDALT_UPDATE  [INITIALISE_VARIA]":
(PID.TID 0000.0001)          User time:  9.9999904632568359E-003
(PID.TID 0000.0001)        System time:  9.9999904632568359E-003
(PID.TID 0000.0001)    Wall clock time:  9.6459388732910156E-003
(PID.TID 0000.0001)         No. starts:           1
(PID.TID 0000.0001)          No. stops:           1
(PID.TID 0000.0001)  Seconds in section "MAIN LOOP           [THE_MAIN_LOOP]":
(PID.TID 0000.0001)          User time:   122.9299960136414
(PID.TID 0000.0001)        System time:   7.529999613761902
(PID.TID 0000.0001)    Wall clock time:   132.2075290679932
(PID.TID 0000.0001)         No. starts:           1
(PID.TID 0000.0001)          No. stops:           1
(PID.TID 0000.0001)  Seconds in section "FORWARD_STEP        [THE_MAIN_LOOP]":
(PID.TID 0000.0001)          User time:   122.9299960136414
(PID.TID 0000.0001)        System time:   7.529999613761902
(PID.TID 0000.0001)    Wall clock time:   132.2067401409149
(PID.TID 0000.0001)         No. starts:          15
(PID.TID 0000.0001)          No. stops:          15
(PID.TID 0000.0001)  Seconds in section "DO_STATEVARS_DIAGS  [FORWARD_STEP]":
(PID.TID 0000.0001)          User time:   3.080008268356323
(PID.TID 0000.0001)        System time:  0.0000000000000000E+000
(PID.TID 0000.0001)    Wall clock time:   3.083481073379517
(PID.TID 0000.0001)         No. starts:          45
(PID.TID 0000.0001)          No. stops:          45
(PID.TID 0000.0001)  Seconds in section "LOAD_FIELDS_DRIVER  [FORWARD_STEP]":
(PID.TID 0000.0001)          User time:  0.0000000000000000E+000
(PID.TID 0000.0001)        System time:  0.0000000000000000E+000
(PID.TID 0000.0001)    Wall clock time:  2.2070407867431641E-003
(PID.TID 0000.0001)         No. starts:          15
(PID.TID 0000.0001)          No. stops:          15
(PID.TID 0000.0001)  Seconds in section "EXTERNAL_FLDS_LOAD [LOAD_FLDS_DRIVER]":
(PID.TID 0000.0001)          User time:  0.0000000000000000E+000
(PID.TID 0000.0001)        System time:  0.0000000000000000E+000
(PID.TID 0000.0001)    Wall clock time:  7.5173377990722656E-004
(PID.TID 0000.0001)         No. starts:          15
(PID.TID 0000.0001)          No. stops:          15
(PID.TID 0000.0001)  Seconds in section "DO_ATMOSPHERIC_PHYS [FORWARD_STEP]":
(PID.TID 0000.0001)          User time:   84.10999751091003
(PID.TID 0000.0001)        System time:   6.610000252723694
(PID.TID 0000.0001)    Wall clock time:   90.90535902976990
(PID.TID 0000.0001)         No. starts:          15
(PID.TID 0000.0001)          No. stops:          15
(PID.TID 0000.0001)  Seconds in section "FIZHI          [DO_ATMOSPHERIC_PHYS]":
(PID.TID 0000.0001)          User time:   84.10999751091003
(PID.TID 0000.0001)        System time:   6.610000252723694
(PID.TID 0000.0001)    Wall clock time:   90.90385437011719
(PID.TID 0000.0001)         No. starts:          15
(PID.TID 0000.0001)          No. stops:          15
(PID.TID 0000.0001)  Seconds in section "DO_FIZHI          [FIZHI_WRAPPER]":
(PID.TID 0000.0001)          User time:   79.49999117851257
(PID.TID 0000.0001)        System time:   6.569999992847443
(PID.TID 0000.0001)    Wall clock time:   86.22858428955078
(PID.TID 0000.0001)         No. starts:          15
(PID.TID 0000.0001)          No. stops:          15
(PID.TID 0000.0001)  Seconds in section "PHYS2DYN          [FIZHI_WRAPPER]":
(PID.TID 0000.0001)          User time:   1.650012969970703
(PID.TID 0000.0001)        System time:  1.0000228881835938E-002
(PID.TID 0000.0001)    Wall clock time:   1.659717082977295
(PID.TID 0000.0001)         No. starts:          15
(PID.TID 0000.0001)          No. stops:          15
(PID.TID 0000.0001)  Seconds in section "ATOC              [FIZHI_WRAPPER]":
(PID.TID 0000.0001)          User time:  0.6499900817871094
(PID.TID 0000.0001)        System time:  0.0000000000000000E+000
(PID.TID 0000.0001)    Wall clock time:  0.6532812118530273
(PID.TID 0000.0001)         No. starts:          15
(PID.TID 0000.0001)          No. stops:          15
(PID.TID 0000.0001)  Seconds in section "EXCHANGES         [FIZHI_WRAPPER]":
(PID.TID 0000.0001)          User time:  0.6199913024902344
(PID.TID 0000.0001)        System time:  0.0000000000000000E+000
(PID.TID 0000.0001)    Wall clock time:  0.6427140235900879
(PID.TID 0000.0001)         No. starts:          15
(PID.TID 0000.0001)          No. stops:          15
(PID.TID 0000.0001)  Seconds in section "DO_OCEANIC_PHYS     [FORWARD_STEP]":
(PID.TID 0000.0001)          User time:  0.0000000000000000E+000
(PID.TID 0000.0001)        System time:  0.0000000000000000E+000
(PID.TID 0000.0001)    Wall clock time:  7.6055526733398438E-004
(PID.TID 0000.0001)         No. starts:          15
(PID.TID 0000.0001)          No. stops:          15
(PID.TID 0000.0001)  Seconds in section "DYNAMICS            [FORWARD_STEP]":
(PID.TID 0000.0001)          User time:   7.169994354248047
(PID.TID 0000.0001)        System time:  0.0000000000000000E+000
(PID.TID 0000.0001)    Wall clock time:   7.174474477767944
(PID.TID 0000.0001)         No. starts:          15
(PID.TID 0000.0001)          No. stops:          15
(PID.TID 0000.0001)  Seconds in section "UPDATE_R_STAR       [FORWARD_STEP]":
(PID.TID 0000.0001)          User time:  0.5400085449218750
(PID.TID 0000.0001)        System time:  0.0000000000000000E+000
(PID.TID 0000.0001)    Wall clock time:  0.5462434291839600
(PID.TID 0000.0001)         No. starts:          15
(PID.TID 0000.0001)          No. stops:          15
(PID.TID 0000.0001)  Seconds in section "UPDATE_CG2D         [FORWARD_STEP]":
(PID.TID 0000.0001)          User time:  0.1699943542480469
(PID.TID 0000.0001)        System time:  0.0000000000000000E+000
(PID.TID 0000.0001)    Wall clock time:  0.1799466609954834
(PID.TID 0000.0001)         No. starts:          15
(PID.TID 0000.0001)          No. stops:          15
(PID.TID 0000.0001)  Seconds in section "SOLVE_FOR_PRESSURE  [FORWARD_STEP]":
(PID.TID 0000.0001)          User time:  0.4899902343750000
(PID.TID 0000.0001)        System time:  0.0000000000000000E+000
(PID.TID 0000.0001)    Wall clock time:  0.4697606563568115
(PID.TID 0000.0001)         No. starts:          15
(PID.TID 0000.0001)          No. stops:          15
(PID.TID 0000.0001)  Seconds in section "MOM_CORRECTION_STEP [FORWARD_STEP]":
(PID.TID 0000.0001)          User time:   5.849998474121094
(PID.TID 0000.0001)        System time:  9.9999904632568359E-003
(PID.TID 0000.0001)    Wall clock time:   5.859661817550659
(PID.TID 0000.0001)         No. starts:          15
(PID.TID 0000.0001)          No. stops:          15
(PID.TID 0000.0001)  Seconds in section "SHAP_FILT_UV       [MOM_CORR_STEP]":
(PID.TID 0000.0001)          User time:   5.210014343261719
(PID.TID 0000.0001)        System time:  9.9999904632568359E-003
(PID.TID 0000.0001)    Wall clock time:   5.233272314071655
(PID.TID 0000.0001)         No. starts:          15
(PID.TID 0000.0001)          No. stops:          15
(PID.TID 0000.0001)  Seconds in section "UPDATE_ETAH         [FORWARD_STEP]":
(PID.TID 0000.0001)          User time:  0.0000000000000000E+000
(PID.TID 0000.0001)        System time:  0.0000000000000000E+000
(PID.TID 0000.0001)    Wall clock time:  4.4548511505126953E-003
(PID.TID 0000.0001)         No. starts:          15
(PID.TID 0000.0001)          No. stops:          15
(PID.TID 0000.0001)  Seconds in section "CALC_R_STAR         [FORWARD_STEP]":
(PID.TID 0000.0001)          User time:  7.0007324218750000E-002
(PID.TID 0000.0001)        System time:  0.0000000000000000E+000
(PID.TID 0000.0001)    Wall clock time:  6.4686536788940430E-002
(PID.TID 0000.0001)         No. starts:          15
(PID.TID 0000.0001)          No. stops:          15
(PID.TID 0000.0001)  Seconds in section "BLOCKING_EXCHANGES  [FORWARD_STEP]":
(PID.TID 0000.0001)          User time:  0.7299995422363281
(PID.TID 0000.0001)        System time:  0.0000000000000000E+000
(PID.TID 0000.0001)    Wall clock time:  0.7315044403076172
(PID.TID 0000.0001)         No. starts:          30
(PID.TID 0000.0001)          No. stops:          30
(PID.TID 0000.0001)  Seconds in section "THERMODYNAMICS      [FORWARD_STEP]":
(PID.TID 0000.0001)          User time:   3.790008544921875
(PID.TID 0000.0001)        System time:  0.0000000000000000E+000
(PID.TID 0000.0001)    Wall clock time:   3.780273675918579
(PID.TID 0000.0001)         No. starts:          15
(PID.TID 0000.0001)          No. stops:          15
(PID.TID 0000.0001)  Seconds in section "TRC_CORRECTION_STEP [FORWARD_STEP]":
(PID.TID 0000.0001)          User time:   3.219985961914063
(PID.TID 0000.0001)        System time:  0.0000000000000000E+000
(PID.TID 0000.0001)    Wall clock time:   3.224383592605591
(PID.TID 0000.0001)         No. starts:          15
(PID.TID 0000.0001)          No. stops:          15
(PID.TID 0000.0001)  Seconds in section "SHAP_FILT_TS       [TRC_CORR_STEP]":
(PID.TID 0000.0001)          User time:   3.119995117187500
(PID.TID 0000.0001)        System time:  0.0000000000000000E+000
(PID.TID 0000.0001)    Wall clock time:   3.107012033462524
(PID.TID 0000.0001)         No. starts:          15
(PID.TID 0000.0001)          No. stops:          15
(PID.TID 0000.0001)  Seconds in section "FIZHI               [FORWARD_STEP]":
(PID.TID 0000.0001)          User time:   6.310009002685547
(PID.TID 0000.0001)        System time:  4.9999713897705078E-002
(PID.TID 0000.0001)    Wall clock time:   6.361290931701660
(PID.TID 0000.0001)         No. starts:          15
(PID.TID 0000.0001)          No. stops:          15
(PID.TID 0000.0001)  Seconds in section "PHYS2DYN          [STEP_FIZHI_CORR]":
(PID.TID 0000.0001)          User time:   1.520004272460938
(PID.TID 0000.0001)        System time:  9.9999904632568359E-003
(PID.TID 0000.0001)    Wall clock time:   1.526207208633423
(PID.TID 0000.0001)         No. starts:          15
(PID.TID 0000.0001)          No. stops:          15
(PID.TID 0000.0001)  Seconds in section "ATOC              [STEP_FIZHI_CORR]":
(PID.TID 0000.0001)          User time:  0.6199951171875000
(PID.TID 0000.0001)        System time:  0.0000000000000000E+000
(PID.TID 0000.0001)    Wall clock time:  0.6397509574890137
(PID.TID 0000.0001)         No. starts:          15
(PID.TID 0000.0001)          No. stops:          15
(PID.TID 0000.0001)  Seconds in section "CTOA              [STEP_FIZHI_CORR]":
(PID.TID 0000.0001)          User time:  0.7900009155273438
(PID.TID 0000.0001)        System time:  0.0000000000000000E+000
(PID.TID 0000.0001)    Wall clock time:  0.7886891365051270
(PID.TID 0000.0001)         No. starts:          15
(PID.TID 0000.0001)          No. stops:          15
(PID.TID 0000.0001)  Seconds in section "DYN2PHYS          [STEP_FIZHI_CORR]":
(PID.TID 0000.0001)          User time:   2.209999084472656
(PID.TID 0000.0001)        System time:  2.9999971389770508E-002
(PID.TID 0000.0001)    Wall clock time:   2.226253032684326
(PID.TID 0000.0001)         No. starts:          15
(PID.TID 0000.0001)          No. stops:          15
(PID.TID 0000.0001)  Seconds in section "DO_STATEVARS_TAVE   [FORWARD_STEP]":
(PID.TID 0000.0001)          User time:  0.0000000000000000E+000
(PID.TID 0000.0001)        System time:  0.0000000000000000E+000
(PID.TID 0000.0001)    Wall clock time:  7.5340270996093750E-004
(PID.TID 0000.0001)         No. starts:          15
(PID.TID 0000.0001)          No. stops:          15
(PID.TID 0000.0001)  Seconds in section "MONITOR             [FORWARD_STEP]":
(PID.TID 0000.0001)          User time:   3.599990844726563
(PID.TID 0000.0001)        System time:  0.0000000000000000E+000
(PID.TID 0000.0001)    Wall clock time:   3.591790437698364
(PID.TID 0000.0001)         No. starts:          15
(PID.TID 0000.0001)          No. stops:          15
(PID.TID 0000.0001)  Seconds in section "DO_THE_MODEL_IO     [FORWARD_STEP]":
(PID.TID 0000.0001)          User time:   3.690002441406250
(PID.TID 0000.0001)        System time:  0.8599996566772461
(PID.TID 0000.0001)    Wall clock time:   6.115477323532104
(PID.TID 0000.0001)         No. starts:          15
(PID.TID 0000.0001)          No. stops:          15
(PID.TID 0000.0001)  Seconds in section "DO_WRITE_PICKUP     [FORWARD_STEP]":
(PID.TID 0000.0001)          User time:  0.0000000000000000E+000
(PID.TID 0000.0001)        System time:  0.0000000000000000E+000
(PID.TID 0000.0001)    Wall clock time:  7.4863433837890625E-004
(PID.TID 0000.0001)         No. starts:          15
(PID.TID 0000.0001)          No. stops:          15
(PID.TID 0000.0001)  Seconds in section "DO_WRITE_PICKUP        [THE_MODEL_MAIN]":
(PID.TID 0000.0001)          User time:  0.8000030517578125
(PID.TID 0000.0001)        System time:  0.4700002670288086
(PID.TID 0000.0001)    Wall clock time:   8.406973123550415
(PID.TID 0000.0001)         No. starts:           1
(PID.TID 0000.0001)          No. stops:           1
(PID.TID 0000.0001) // ======================================================
(PID.TID 0000.0001) // Tile <-> Tile communication statistics
(PID.TID 0000.0001) // ======================================================
(PID.TID 0000.0001) // o Tile number: 000001
(PID.TID 0000.0001) //         No. X exchanges =              0
(PID.TID 0000.0001) //            Max. X spins =              0
(PID.TID 0000.0001) //            Min. X spins =     1000000000
(PID.TID 0000.0001) //          Total. X spins =              0
(PID.TID 0000.0001) //            Avg. X spins =       0.00E+00
(PID.TID 0000.0001) //         No. Y exchanges =              0
(PID.TID 0000.0001) //            Max. Y spins =              0
(PID.TID 0000.0001) //            Min. Y spins =     1000000000
(PID.TID 0000.0001) //          Total. Y spins =              0
(PID.TID 0000.0001) //            Avg. Y spins =       0.00E+00
(PID.TID 0000.0001) // o Tile number: 000002
(PID.TID 0000.0001) //         No. X exchanges =              0
(PID.TID 0000.0001) //            Max. X spins =              0
(PID.TID 0000.0001) //            Min. X spins =     1000000000
(PID.TID 0000.0001) //          Total. X spins =              0
(PID.TID 0000.0001) //            Avg. X spins =       0.00E+00
(PID.TID 0000.0001) //         No. Y exchanges =              0
(PID.TID 0000.0001) //            Max. Y spins =              0
(PID.TID 0000.0001) //            Min. Y spins =     1000000000
(PID.TID 0000.0001) //          Total. Y spins =              0
(PID.TID 0000.0001) //            Avg. Y spins =       0.00E+00
(PID.TID 0000.0001) // o Tile number: 000003
(PID.TID 0000.0001) //         No. X exchanges =              0
(PID.TID 0000.0001) //            Max. X spins =              0
(PID.TID 0000.0001) //            Min. X spins =     1000000000
(PID.TID 0000.0001) //          Total. X spins =              0
(PID.TID 0000.0001) //            Avg. X spins =       0.00E+00
(PID.TID 0000.0001) //         No. Y exchanges =              0
(PID.TID 0000.0001) //            Max. Y spins =              0
(PID.TID 0000.0001) //            Min. Y spins =     1000000000
(PID.TID 0000.0001) //          Total. Y spins =              0
(PID.TID 0000.0001) //            Avg. Y spins =       0.00E+00
(PID.TID 0000.0001) // o Tile number: 000004
(PID.TID 0000.0001) //         No. X exchanges =              0
(PID.TID 0000.0001) //            Max. X spins =              0
(PID.TID 0000.0001) //            Min. X spins =     1000000000
(PID.TID 0000.0001) //          Total. X spins =              0
(PID.TID 0000.0001) //            Avg. X spins =       0.00E+00
(PID.TID 0000.0001) //         No. Y exchanges =              0
(PID.TID 0000.0001) //            Max. Y spins =              0
(PID.TID 0000.0001) //            Min. Y spins =     1000000000
(PID.TID 0000.0001) //          Total. Y spins =              0
(PID.TID 0000.0001) //            Avg. Y spins =       0.00E+00
(PID.TID 0000.0001) // o Tile number: 000005
(PID.TID 0000.0001) //         No. X exchanges =              0
(PID.TID 0000.0001) //            Max. X spins =              0
(PID.TID 0000.0001) //            Min. X spins =     1000000000
(PID.TID 0000.0001) //          Total. X spins =              0
(PID.TID 0000.0001) //            Avg. X spins =       0.00E+00
(PID.TID 0000.0001) //         No. Y exchanges =              0
(PID.TID 0000.0001) //            Max. Y spins =              0
(PID.TID 0000.0001) //            Min. Y spins =     1000000000
(PID.TID 0000.0001) //          Total. Y spins =              0
(PID.TID 0000.0001) //            Avg. Y spins =       0.00E+00
(PID.TID 0000.0001) // o Tile number: 000006
(PID.TID 0000.0001) //         No. X exchanges =              0
(PID.TID 0000.0001) //            Max. X spins =              0
(PID.TID 0000.0001) //            Min. X spins =     1000000000
(PID.TID 0000.0001) //          Total. X spins =              0
(PID.TID 0000.0001) //            Avg. X spins =       0.00E+00
(PID.TID 0000.0001) //         No. Y exchanges =              0
(PID.TID 0000.0001) //            Max. Y spins =              0
(PID.TID 0000.0001) //            Min. Y spins =     1000000000
(PID.TID 0000.0001) //          Total. Y spins =              0
(PID.TID 0000.0001) //            Avg. Y spins =       0.00E+00
(PID.TID 0000.0001) // o Thread number: 000001
(PID.TID 0000.0001) //            No. barriers =          11683
(PID.TID 0000.0001) //      Max. barrier spins =              1
(PID.TID 0000.0001) //      Min. barrier spins =              1
(PID.TID 0000.0001) //     Total barrier spins =          11683
(PID.TID 0000.0001) //      Avg. barrier spins =       1.00E+00
