(PID.TID 0000.0001) 
(PID.TID 0000.0001) // ======================================================
(PID.TID 0000.0001) //                      MITgcm UV
(PID.TID 0000.0001) //                      =========
(PID.TID 0000.0001) // ======================================================
(PID.TID 0000.0001) // execution environment starting up...
(PID.TID 0000.0001) 
(PID.TID 0000.0001) // MITgcmUV version:  checkpoint58r_post
(PID.TID 0000.0001) // Build user:        jmc
(PID.TID 0000.0001) // Build host:        faulks
(PID.TID 0000.0001) // Build date:        Tue Dec  5 16:24:42 EST 2006
(PID.TID 0000.0001) 
(PID.TID 0000.0001) // =======================================================
(PID.TID 0000.0001) // Execution Environment parameter file "eedata"
(PID.TID 0000.0001) // =======================================================
(PID.TID 0000.0001) ># Example "eedata" file
(PID.TID 0000.0001) ># Lines beginning "#" are comments
(PID.TID 0000.0001) ># nTx - No. threads per process in X
(PID.TID 0000.0001) ># nTy - No. threads per process in Y
(PID.TID 0000.0001) > &EEPARMS
(PID.TID 0000.0001) > useCubedSphereExchange=.TRUE.,
(PID.TID 0000.0001) ># unlimit the stack size for the FIZHI rad code
(PID.TID 0000.0001) >#EH3  useSETRLSTK is commented out (default: false) since, with the g77
(PID.TID 0000.0001) >#EH3  compiler, it causes the model to hang *without* returning -- thus
(PID.TID 0000.0001) >#EH3  killing all our automated g77 testing on, for instance, the ACES
(PID.TID 0000.0001) >#EH3  cluster.
(PID.TID 0000.0001) >#EH3  useSETRLSTK=.TRUE.,
(PID.TID 0000.0001) ># Activate one line below to support 2, 3 or 6 way multi-threading
(PID.TID 0000.0001) >#nTx=2,
(PID.TID 0000.0001) >#nTx=3,
(PID.TID 0000.0001) >#nTx=6,
(PID.TID 0000.0001) > &
(PID.TID 0000.0001) ># Note: Some systems use & as the
(PID.TID 0000.0001) ># namelist terminator. Other systems
(PID.TID 0000.0001) ># use a / character (as shown here).
(PID.TID 0000.0001) 
(PID.TID 0000.0001) // =======================================================
(PID.TID 0000.0001) // Computational Grid Specification ( see files "SIZE.h" )
(PID.TID 0000.0001) //                                  ( and "eedata"       )
(PID.TID 0000.0001) // =======================================================
(PID.TID 0000.0001)      nPx =    1 ; /* No. processes in X */
(PID.TID 0000.0001)      nPy =    1 ; /* No. processes in Y */
(PID.TID 0000.0001)      nSx =    6 ; /* No. tiles in X per process */
(PID.TID 0000.0001)      nSy =    1 ; /* No. tiles in Y per process */
(PID.TID 0000.0001)      sNx =   32 ; /* Tile size in X */
(PID.TID 0000.0001)      sNy =   32 ; /* Tile size in Y */
(PID.TID 0000.0001)      OLx =    2 ; /* Tile overlap distance in X */
(PID.TID 0000.0001)      OLy =    2 ; /* Tile overlap distance in Y */
(PID.TID 0000.0001)      nTx =    1 ; /* No. threads in X per process */
(PID.TID 0000.0001)      nTy =    1 ; /* No. threads in Y per process */
(PID.TID 0000.0001)       Nr =   20 ; /* No. levels in the vertical   */
(PID.TID 0000.0001)       nX =  192 ; /* Total domain size in X ( = nPx*nSx*sNx ) */
(PID.TID 0000.0001)       nY =   32 ; /* Total domain size in Y ( = nPy*nSy*sNy ) */
(PID.TID 0000.0001)   nTiles =    6 ; /* Total no. tiles per process ( = nSx*nSy ) */
(PID.TID 0000.0001)   nProcs =    1 ; /* Total no. processes ( = nPx*nPy ) */
(PID.TID 0000.0001) nThreads =    1 ; /* Total no. threads per process ( = nTx*nTy ) */
(PID.TID 0000.0001) usingMPI =    F ; /* Flag used to control whether MPI is in use */
(PID.TID 0000.0001)                   /*  note: To execute a program with MPI calls */
(PID.TID 0000.0001)                   /*  it must be launched appropriately e.g     */
(PID.TID 0000.0001)                   /*  "mpirun -np 64 ......"                    */
(PID.TID 0000.0001) useCoupler=   F ; /* Flag used to control communications with */
(PID.TID 0000.0001)                   /*  other model components, through a coupler */
(PID.TID 0000.0001) 
(PID.TID 0000.0001) // ======================================================
(PID.TID 0000.0001) // Mapping of tiles to threads
(PID.TID 0000.0001) // ======================================================
(PID.TID 0000.0001) // -o- Thread   1, tiles (   1:   6,   1:   1)
(PID.TID 0000.0001) 
(PID.TID 0000.0001) // ======================================================
(PID.TID 0000.0001) // Tile <-> Tile connectvity table
(PID.TID 0000.0001) // ======================================================
(PID.TID 0000.0001) // Tile number: 000001 (process no. = 000001)
(PID.TID 0000.0001) //        WEST: Tile = 000006, Process = 000001, Comm = put
(PID.TID 0000.0001) //                bi = 000006, bj = 000001
(PID.TID 0000.0001) //        EAST: Tile = 000002, Process = 000001, Comm = put
(PID.TID 0000.0001) //                bi = 000002, bj = 000001
(PID.TID 0000.0001) //       SOUTH: Tile = 000001, Process = 000001, Comm = put
(PID.TID 0000.0001) //                bi = 000001, bj = 000001
(PID.TID 0000.0001) //       NORTH: Tile = 000001, Process = 000001, Comm = put
(PID.TID 0000.0001) //                bi = 000001, bj = 000001
(PID.TID 0000.0001) // Tile number: 000002 (process no. = 000001)
(PID.TID 0000.0001) //        WEST: Tile = 000001, Process = 000001, Comm = put
(PID.TID 0000.0001) //                bi = 000001, bj = 000001
(PID.TID 0000.0001) //        EAST: Tile = 000003, Process = 000001, Comm = put
(PID.TID 0000.0001) //                bi = 000003, bj = 000001
(PID.TID 0000.0001) //       SOUTH: Tile = 000002, Process = 000001, Comm = put
(PID.TID 0000.0001) //                bi = 000002, bj = 000001
(PID.TID 0000.0001) //       NORTH: Tile = 000002, Process = 000001, Comm = put
(PID.TID 0000.0001) //                bi = 000002, bj = 000001
(PID.TID 0000.0001) // Tile number: 000003 (process no. = 000001)
(PID.TID 0000.0001) //        WEST: Tile = 000002, Process = 000001, Comm = put
(PID.TID 0000.0001) //                bi = 000002, bj = 000001
(PID.TID 0000.0001) //        EAST: Tile = 000004, Process = 000001, Comm = put
(PID.TID 0000.0001) //                bi = 000004, bj = 000001
(PID.TID 0000.0001) //       SOUTH: Tile = 000003, Process = 000001, Comm = put
(PID.TID 0000.0001) //                bi = 000003, bj = 000001
(PID.TID 0000.0001) //       NORTH: Tile = 000003, Process = 000001, Comm = put
(PID.TID 0000.0001) //                bi = 000003, bj = 000001
(PID.TID 0000.0001) // Tile number: 000004 (process no. = 000001)
(PID.TID 0000.0001) //        WEST: Tile = 000003, Process = 000001, Comm = put
(PID.TID 0000.0001) //                bi = 000003, bj = 000001
(PID.TID 0000.0001) //        EAST: Tile = 000005, Process = 000001, Comm = put
(PID.TID 0000.0001) //                bi = 000005, bj = 000001
(PID.TID 0000.0001) //       SOUTH: Tile = 000004, Process = 000001, Comm = put
(PID.TID 0000.0001) //                bi = 000004, bj = 000001
(PID.TID 0000.0001) //       NORTH: Tile = 000004, Process = 000001, Comm = put
(PID.TID 0000.0001) //                bi = 000004, bj = 000001
(PID.TID 0000.0001) // Tile number: 000005 (process no. = 000001)
(PID.TID 0000.0001) //        WEST: Tile = 000004, Process = 000001, Comm = put
(PID.TID 0000.0001) //                bi = 000004, bj = 000001
(PID.TID 0000.0001) //        EAST: Tile = 000006, Process = 000001, Comm = put
(PID.TID 0000.0001) //                bi = 000006, bj = 000001
(PID.TID 0000.0001) //       SOUTH: Tile = 000005, Process = 000001, Comm = put
(PID.TID 0000.0001) //                bi = 000005, bj = 000001
(PID.TID 0000.0001) //       NORTH: Tile = 000005, Process = 000001, Comm = put
(PID.TID 0000.0001) //                bi = 000005, bj = 000001
(PID.TID 0000.0001) // Tile number: 000006 (process no. = 000001)
(PID.TID 0000.0001) //        WEST: Tile = 000005, Process = 000001, Comm = put
(PID.TID 0000.0001) //                bi = 000005, bj = 000001
(PID.TID 0000.0001) //        EAST: Tile = 000001, Process = 000001, Comm = put
(PID.TID 0000.0001) //                bi = 000001, bj = 000001
(PID.TID 0000.0001) //       SOUTH: Tile = 000006, Process = 000001, Comm = put
(PID.TID 0000.0001) //                bi = 000006, bj = 000001
(PID.TID 0000.0001) //       NORTH: Tile = 000006, Process = 000001, Comm = put
(PID.TID 0000.0001) //                bi = 000006, bj = 000001
(PID.TID 0000.0001) 
(PID.TID 0000.0001) ===== W2 TILE TOPLOGY =====
(PID.TID 0000.0001)  TILE:    1
(PID.TID 0000.0001)       NEIGHBOUR    1 = TILE    3 Comm = PUT ( PROC =    1)
(PID.TID 0000.0001)       NEIGHBOUR    2 = TILE    6 Comm = PUT ( PROC =    1)
(PID.TID 0000.0001)       NEIGHBOUR    3 = TILE    2 Comm = PUT ( PROC =    1)
(PID.TID 0000.0001)       NEIGHBOUR    4 = TILE    5 Comm = PUT ( PROC =    1)
(PID.TID 0000.0001)  TILE:    2
(PID.TID 0000.0001)       NEIGHBOUR    1 = TILE    3 Comm = PUT ( PROC =    1)
(PID.TID 0000.0001)       NEIGHBOUR    2 = TILE    6 Comm = PUT ( PROC =    1)
(PID.TID 0000.0001)       NEIGHBOUR    3 = TILE    4 Comm = PUT ( PROC =    1)
(PID.TID 0000.0001)       NEIGHBOUR    4 = TILE    1 Comm = PUT ( PROC =    1)
(PID.TID 0000.0001)  TILE:    3
(PID.TID 0000.0001)       NEIGHBOUR    1 = TILE    5 Comm = PUT ( PROC =    1)
(PID.TID 0000.0001)       NEIGHBOUR    2 = TILE    2 Comm = PUT ( PROC =    1)
(PID.TID 0000.0001)       NEIGHBOUR    3 = TILE    4 Comm = PUT ( PROC =    1)
(PID.TID 0000.0001)       NEIGHBOUR    4 = TILE    1 Comm = PUT ( PROC =    1)
(PID.TID 0000.0001)  TILE:    4
(PID.TID 0000.0001)       NEIGHBOUR    1 = TILE    5 Comm = PUT ( PROC =    1)
(PID.TID 0000.0001)       NEIGHBOUR    2 = TILE    2 Comm = PUT ( PROC =    1)
(PID.TID 0000.0001)       NEIGHBOUR    3 = TILE    6 Comm = PUT ( PROC =    1)
(PID.TID 0000.0001)       NEIGHBOUR    4 = TILE    3 Comm = PUT ( PROC =    1)
(PID.TID 0000.0001)  TILE:    5
(PID.TID 0000.0001)       NEIGHBOUR    1 = TILE    1 Comm = PUT ( PROC =    1)
(PID.TID 0000.0001)       NEIGHBOUR    2 = TILE    4 Comm = PUT ( PROC =    1)
(PID.TID 0000.0001)       NEIGHBOUR    3 = TILE    6 Comm = PUT ( PROC =    1)
(PID.TID 0000.0001)       NEIGHBOUR    4 = TILE    3 Comm = PUT ( PROC =    1)
(PID.TID 0000.0001)  TILE:    6
(PID.TID 0000.0001)       NEIGHBOUR    1 = TILE    1 Comm = PUT ( PROC =    1)
(PID.TID 0000.0001)       NEIGHBOUR    2 = TILE    4 Comm = PUT ( PROC =    1)
(PID.TID 0000.0001)       NEIGHBOUR    3 = TILE    2 Comm = PUT ( PROC =    1)
(PID.TID 0000.0001)       NEIGHBOUR    4 = TILE    5 Comm = PUT ( PROC =    1)
(PID.TID 0000.0001) Tile    1(proc =   1) sends points i=  34:  -1, j=  31:  32
(PID.TID 0000.0001)                          to points i=  -1:   0, j=  -1:  34 in tile    3(proc =   1)
(PID.TID 0000.0001) Tile    1(proc =   1) sends points i=  -1:  34, j=   1:   2
(PID.TID 0000.0001)                          to points i=  -1:  34, j=  33:  34 in tile    6(proc =   1)
(PID.TID 0000.0001) Tile    1(proc =   1) sends points i=  31:  32, j=  -1:  34
(PID.TID 0000.0001)                          to points i=  -1:   0, j=  -1:  34 in tile    2(proc =   1)
(PID.TID 0000.0001) Tile    1(proc =   1) sends points i=   1:   2, j=  34:  -1
(PID.TID 0000.0001)                          to points i=  -1:  34, j=  33:  34 in tile    5(proc =   1)
(PID.TID 0000.0001) Tile    2(proc =   1) sends points i=  -1:  34, j=  31:  32
(PID.TID 0000.0001)                          to points i=  -1:  34, j=  -1:   0 in tile    3(proc =   1)
(PID.TID 0000.0001) Tile    2(proc =   1) sends points i=  34:  -1, j=   1:   2
(PID.TID 0000.0001)                          to points i=  33:  34, j=  -1:  34 in tile    6(proc =   1)
(PID.TID 0000.0001) Tile    2(proc =   1) sends points i=  31:  32, j=  34:  -1
(PID.TID 0000.0001)                          to points i=  -1:  34, j=  -1:   0 in tile    4(proc =   1)
(PID.TID 0000.0001) Tile    2(proc =   1) sends points i=   1:   2, j=  -1:  34
(PID.TID 0000.0001)                          to points i=  33:  34, j=  -1:  34 in tile    1(proc =   1)
(PID.TID 0000.0001) Tile    3(proc =   1) sends points i=  34:  -1, j=  31:  32
(PID.TID 0000.0001)                          to points i=  -1:   0, j=  -1:  34 in tile    5(proc =   1)
(PID.TID 0000.0001) Tile    3(proc =   1) sends points i=  -1:  34, j=   1:   2
(PID.TID 0000.0001)                          to points i=  -1:  34, j=  33:  34 in tile    2(proc =   1)
(PID.TID 0000.0001) Tile    3(proc =   1) sends points i=  31:  32, j=  -1:  34
(PID.TID 0000.0001)                          to points i=  -1:   0, j=  -1:  34 in tile    4(proc =   1)
(PID.TID 0000.0001) Tile    3(proc =   1) sends points i=   1:   2, j=  34:  -1
(PID.TID 0000.0001)                          to points i=  -1:  34, j=  33:  34 in tile    1(proc =   1)
(PID.TID 0000.0001) Tile    4(proc =   1) sends points i=  -1:  34, j=  31:  32
(PID.TID 0000.0001)                          to points i=  -1:  34, j=  -1:   0 in tile    5(proc =   1)
(PID.TID 0000.0001) Tile    4(proc =   1) sends points i=  34:  -1, j=   1:   2
(PID.TID 0000.0001)                          to points i=  33:  34, j=  -1:  34 in tile    2(proc =   1)
(PID.TID 0000.0001) Tile    4(proc =   1) sends points i=  31:  32, j=  34:  -1
(PID.TID 0000.0001)                          to points i=  -1:  34, j=  -1:   0 in tile    6(proc =   1)
(PID.TID 0000.0001) Tile    4(proc =   1) sends points i=   1:   2, j=  -1:  34
(PID.TID 0000.0001)                          to points i=  33:  34, j=  -1:  34 in tile    3(proc =   1)
(PID.TID 0000.0001) Tile    5(proc =   1) sends points i=  34:  -1, j=  31:  32
(PID.TID 0000.0001)                          to points i=  -1:   0, j=  -1:  34 in tile    1(proc =   1)
(PID.TID 0000.0001) Tile    5(proc =   1) sends points i=  -1:  34, j=   1:   2
(PID.TID 0000.0001)                          to points i=  -1:  34, j=  33:  34 in tile    4(proc =   1)
(PID.TID 0000.0001) Tile    5(proc =   1) sends points i=  31:  32, j=  -1:  34
(PID.TID 0000.0001)                          to points i=  -1:   0, j=  -1:  34 in tile    6(proc =   1)
(PID.TID 0000.0001) Tile    5(proc =   1) sends points i=   1:   2, j=  34:  -1
(PID.TID 0000.0001)                          to points i=  -1:  34, j=  33:  34 in tile    3(proc =   1)
(PID.TID 0000.0001) Tile    6(proc =   1) sends points i=  -1:  34, j=  31:  32
(PID.TID 0000.0001)                          to points i=  -1:  34, j=  -1:   0 in tile    1(proc =   1)
(PID.TID 0000.0001) Tile    6(proc =   1) sends points i=  34:  -1, j=   1:   2
(PID.TID 0000.0001)                          to points i=  33:  34, j=  -1:  34 in tile    4(proc =   1)
(PID.TID 0000.0001) Tile    6(proc =   1) sends points i=  31:  32, j=  34:  -1
(PID.TID 0000.0001)                          to points i=  -1:  34, j=  -1:   0 in tile    2(proc =   1)
(PID.TID 0000.0001) Tile    6(proc =   1) sends points i=   1:   2, j=  -1:  34
(PID.TID 0000.0001)                          to points i=  33:  34, j=  -1:  34 in tile    5(proc =   1)
(PID.TID 0000.0001) Tile    1(proc =   1)recv to points i=  -1:  34, j=  33:  34from tile   3(proc =   1)
(PID.TID 0000.0001) Tile    1(proc =   1)recv to points i=  -1:  34, j=  -1:   0from tile   6(proc =   1)
(PID.TID 0000.0001) Tile    1(proc =   1)recv to points i=  33:  34, j=  -1:  34from tile   2(proc =   1)
(PID.TID 0000.0001) Tile    1(proc =   1)recv to points i=  -1:   0, j=  -1:  34from tile   5(proc =   1)
(PID.TID 0000.0001) Tile    2(proc =   1)recv to points i=  -1:  34, j=  33:  34from tile   3(proc =   1)
(PID.TID 0000.0001) Tile    2(proc =   1)recv to points i=  -1:  34, j=  -1:   0from tile   6(proc =   1)
(PID.TID 0000.0001) Tile    2(proc =   1)recv to points i=  33:  34, j=  -1:  34from tile   4(proc =   1)
(PID.TID 0000.0001) Tile    2(proc =   1)recv to points i=  -1:   0, j=  -1:  34from tile   1(proc =   1)
(PID.TID 0000.0001) Tile    3(proc =   1)recv to points i=  -1:  34, j=  33:  34from tile   5(proc =   1)
(PID.TID 0000.0001) Tile    3(proc =   1)recv to points i=  -1:  34, j=  -1:   0from tile   2(proc =   1)
(PID.TID 0000.0001) Tile    3(proc =   1)recv to points i=  33:  34, j=  -1:  34from tile   4(proc =   1)
(PID.TID 0000.0001) Tile    3(proc =   1)recv to points i=  -1:   0, j=  -1:  34from tile   1(proc =   1)
(PID.TID 0000.0001) Tile    4(proc =   1)recv to points i=  -1:  34, j=  33:  34from tile   5(proc =   1)
(PID.TID 0000.0001) Tile    4(proc =   1)recv to points i=  -1:  34, j=  -1:   0from tile   2(proc =   1)
(PID.TID 0000.0001) Tile    4(proc =   1)recv to points i=  33:  34, j=  -1:  34from tile   6(proc =   1)
(PID.TID 0000.0001) Tile    4(proc =   1)recv to points i=  -1:   0, j=  -1:  34from tile   3(proc =   1)
(PID.TID 0000.0001) Tile    5(proc =   1)recv to points i=  -1:  34, j=  33:  34from tile   1(proc =   1)
(PID.TID 0000.0001) Tile    5(proc =   1)recv to points i=  -1:  34, j=  -1:   0from tile   4(proc =   1)
(PID.TID 0000.0001) Tile    5(proc =   1)recv to points i=  33:  34, j=  -1:  34from tile   6(proc =   1)
(PID.TID 0000.0001) Tile    5(proc =   1)recv to points i=  -1:   0, j=  -1:  34from tile   3(proc =   1)
(PID.TID 0000.0001) Tile    6(proc =   1)recv to points i=  -1:  34, j=  33:  34from tile   1(proc =   1)
(PID.TID 0000.0001) Tile    6(proc =   1)recv to points i=  -1:  34, j=  -1:   0from tile   4(proc =   1)
(PID.TID 0000.0001) Tile    6(proc =   1)recv to points i=  33:  34, j=  -1:  34from tile   2(proc =   1)
(PID.TID 0000.0001) Tile    6(proc =   1)recv to points i=  -1:   0, j=  -1:  34from tile   5(proc =   1)
(PID.TID 0000.0001) // =======================================================
(PID.TID 0000.0001) // Model parameter file "data"
(PID.TID 0000.0001) // =======================================================
(PID.TID 0000.0001) ># ====================
(PID.TID 0000.0001) ># | Model parameters |
(PID.TID 0000.0001) ># ====================
(PID.TID 0000.0001) >#
(PID.TID 0000.0001) ># Continuous equation parameters
(PID.TID 0000.0001) > &PARM01
(PID.TID 0000.0001) >#tRef=288.8,292.7,298.1,303.8,309.8,316.2,323.2,332.5,356.1,437.4,
(PID.TID 0000.0001) > tRef=286.0,288.0,290.0,292.0,295.0,298.0,301.0,304.0,307.0,310.0,
(PID.TID 0000.0001) >      313.0,316.0,319.5,323.0,327.5,332.0,343.0,356.0,396.0,440.0,
(PID.TID 0000.0001) >#sRef=1.0E-3,5.0E-4,1.E-4,5*1.E-6,1.E-8,1.E-9,
(PID.TID 0000.0001) > sRef=20*0.0,
(PID.TID 0000.0001) > viscAr=0.E1,
(PID.TID 0000.0001) > viscAh=0.E6,
(PID.TID 0000.0001) > viscA4=0.E17,
(PID.TID 0000.0001) > no_slip_sides=.FALSE.,
(PID.TID 0000.0001) > no_slip_bottom=.FALSE.,
(PID.TID 0000.0001) > diffKhT=0.E3,
(PID.TID 0000.0001) > diffKrT=0.,
(PID.TID 0000.0001) > diffK4T=0.E17,
(PID.TID 0000.0001) > diffKrS=0.E2,
(PID.TID 0000.0001) > diffKhS=0.E3,
(PID.TID 0000.0001) > diffK4S=0.E17,
(PID.TID 0000.0001) > buoyancyRelation='ATMOSPHERIC',
(PID.TID 0000.0001) > eosType='IDEALGAS',
(PID.TID 0000.0001) > atm_Rq=0.6078,
(PID.TID 0000.0001) >#Integr_GeoPot=2,
(PID.TID 0000.0001) > rotationPeriod=86400.,
(PID.TID 0000.0001) > gravity=9.81,
(PID.TID 0000.0001) > rhonil=1.0,
(PID.TID 0000.0001) > rhoConst=1.0,
(PID.TID 0000.0001) > rigidLid=.FALSE.,
(PID.TID 0000.0001) > implicitFreeSurface=.TRUE.,
(PID.TID 0000.0001) > exactConserv=.TRUE.,
(PID.TID 0000.0001) > uniformLin_PhiSurf=.FALSE.,
(PID.TID 0000.0001) > staggerTimeStep=.TRUE.,
(PID.TID 0000.0001) > nonHydrostatic=.FALSE.,
(PID.TID 0000.0001) > readBinaryPrec=64,
(PID.TID 0000.0001) > writeBinaryPrec=64,
(PID.TID 0000.0001) > hFacMin=0.2,
(PID.TID 0000.0001) > nonlinFreeSurf=4,
(PID.TID 0000.0001) > select_rStar=2,
(PID.TID 0000.0001) > saltAdvScheme=3,
(PID.TID 0000.0001) > vectorInvariantMomentum=.TRUE.,
(PID.TID 0000.0001) >#- here are the new things:
(PID.TID 0000.0001) > useAbsVorticity=.TRUE.,
(PID.TID 0000.0001) > SadournyCoriolis=.TRUE.,
(PID.TID 0000.0001) > selectKEscheme=3,
(PID.TID 0000.0001) > &
(PID.TID 0000.0001) >
(PID.TID 0000.0001) ># Elliptic solver parameters
(PID.TID 0000.0001) > &PARM02
(PID.TID 0000.0001) > cg2dMaxIters=200,
(PID.TID 0000.0001) >#cg2dTargetResidual=1.E-12,
(PID.TID 0000.0001) > cg2dTargetResWunit=1.E-17,
(PID.TID 0000.0001) > &
(PID.TID 0000.0001) >
(PID.TID 0000.0001) ># Time stepping parameters
(PID.TID 0000.0001) > &PARM03
(PID.TID 0000.0001) > nIter0=0,
(PID.TID 0000.0001) > nTimeSteps=7,
(PID.TID 0000.0001) >#endTime=864000.0,
(PID.TID 0000.0001) > deltaT=120.0,
(PID.TID 0000.0001) > forcing_In_AB=.FALSE.,
(PID.TID 0000.0001) > abEps=0.1,
(PID.TID 0000.0001) > cAdjFreq=0.,
(PID.TID 0000.0001) > pChkptFreq=0.0,
(PID.TID 0000.0001) > ChkptFreq=0.0,
(PID.TID 0000.0001) > dumpFreq=0.0,
(PID.TID 0000.0001) > monitorFreq=1.,
(PID.TID 0000.0001) >#monitorFreq=2678400.,
(PID.TID 0000.0001) > taveFreq=0.0,
(PID.TID 0000.0001) > tave_lastiter=1.,
(PID.TID 0000.0001) > &
(PID.TID 0000.0001) >
(PID.TID 0000.0001) ># Gridding parameters
(PID.TID 0000.0001) > &PARM04
(PID.TID 0000.0001) > usingCartesianGrid=.FALSE.,
(PID.TID 0000.0001) > usingSphericalPolarGrid=.FALSE.,
(PID.TID 0000.0001) > usingCurvilinearGrid=.TRUE.,
(PID.TID 0000.0001) > delR=20*5054.,
(PID.TID 0000.0001) > Ro_SeaLevel=101080.,
(PID.TID 0000.0001) > rSphere=6371.E3,
(PID.TID 0000.0001) > &
(PID.TID 0000.0001) >
(PID.TID 0000.0001) ># Input datasets
(PID.TID 0000.0001) > &PARM05
(PID.TID 0000.0001) >#topoFile='topo.cs.bin',
(PID.TID 0000.0001) > uVelInitFile='U.input.20Lev',
(PID.TID 0000.0001) > vVelInitFile='V.input.20Lev',
(PID.TID 0000.0001) > hydrogThetaFile='T.input.20Lev',
(PID.TID 0000.0001) > hydrogSaltFile='RH.input.20Lev',
(PID.TID 0000.0001) > &
(PID.TID 0000.0001) 
(PID.TID 0000.0001) S/R INI_PARMS ; starts to read PARM01
(PID.TID 0000.0001) S/R INI_PARMS ; read PARM01 : OK
(PID.TID 0000.0001) S/R INI_PARMS ; starts to read PARM02
(PID.TID 0000.0001) S/R INI_PARMS ; read PARM02 : OK
(PID.TID 0000.0001) S/R INI_PARMS ; starts to read PARM03
(PID.TID 0000.0001) S/R INI_PARMS ; read PARM03 : OK
(PID.TID 0000.0001) S/R INI_PARMS ; starts to read PARM04
(PID.TID 0000.0001) S/R INI_PARMS ; read PARM04 : OK
(PID.TID 0000.0001) S/R INI_PARMS ; starts to read PARM05
(PID.TID 0000.0001) S/R INI_PARMS ; read PARM05 : OK
(PID.TID 0000.0001)  PACKAGES_BOOT: opening data.pkg
(PID.TID 0000.0001)  OPEN_COPY_DATA_FILE: opening file data.pkg
(PID.TID 0000.0001) // =======================================================
(PID.TID 0000.0001) // Parameter file "data.pkg"
(PID.TID 0000.0001) // =======================================================
(PID.TID 0000.0001) ># Packages
(PID.TID 0000.0001) > &PACKAGES
(PID.TID 0000.0001) > useFIZHI=.TRUE.,
(PID.TID 0000.0001) > useGRIDALT=.TRUE.,
(PID.TID 0000.0001) > useSHAP_FILT=.TRUE.,
(PID.TID 0000.0001) > useDIAGNOSTICS=.TRUE.,
(PID.TID 0000.0001) > useMNC=.TRUE.,
(PID.TID 0000.0001) > &
(PID.TID 0000.0001) 
(PID.TID 0000.0001)  PACKAGES_BOOT: finished reading data.pkg
(PID.TID 0000.0001)  MNC_READPARMS: opening file 'data.mnc'
(PID.TID 0000.0001)  OPEN_COPY_DATA_FILE: opening file data.mnc
(PID.TID 0000.0001) // =======================================================
(PID.TID 0000.0001) // Parameter file "data.mnc"
(PID.TID 0000.0001) // =======================================================
(PID.TID 0000.0001) ># Example "data.mnc" file
(PID.TID 0000.0001) ># Lines beginning "#" are comments
(PID.TID 0000.0001) > &MNC_01
(PID.TID 0000.0001) ># mnc_echo_gvtypes=.FALSE.,
(PID.TID 0000.0001) ># mnc_use_indir=.FALSE.,
(PID.TID 0000.0001) > mnc_use_outdir=.TRUE.,
(PID.TID 0000.0001) > mnc_outdir_str='mnc_test_',
(PID.TID 0000.0001) ># mnc_outdir_date=.TRUE.,
(PID.TID 0000.0001) > monitor_mnc=.FALSE.,
(PID.TID 0000.0001) > pickup_write_mnc=.FALSE.,
(PID.TID 0000.0001) > pickup_read_mnc=.FALSE.,
(PID.TID 0000.0001) > &
(PID.TID 0000.0001) ># Note: Some systems use & as the
(PID.TID 0000.0001) ># namelist terminator. Other systems
(PID.TID 0000.0001) ># use a / character (as shown here).
(PID.TID 0000.0001) 
(PID.TID 0000.0001)  MNC_READPARMS: finished reading data.mnc
(PID.TID 0000.0001)  SHAP_FILT_READPARMS: opening data.shap
(PID.TID 0000.0001)  OPEN_COPY_DATA_FILE: opening file data.shap
(PID.TID 0000.0001) // =======================================================
(PID.TID 0000.0001) // Parameter file "data.shap"
(PID.TID 0000.0001) // =======================================================
(PID.TID 0000.0001) ># Shapiro Filter parameters
(PID.TID 0000.0001) > &SHAP_PARM01
(PID.TID 0000.0001) > shap_filt_uvStar=.FALSE.,
(PID.TID 0000.0001) > shap_filt_TrStagg=.TRUE.,
(PID.TID 0000.0001) > Shap_funct=2,
(PID.TID 0000.0001) > nShapT=4,
(PID.TID 0000.0001) > nShapUV=4,
(PID.TID 0000.0001) > nShapTrPhys=4,
(PID.TID 0000.0001) > nShapUVPhys=4,
(PID.TID 0000.0001) >#Shap_TrLength=115000.,
(PID.TID 0000.0001) >#Shap_uvLength=110000.,
(PID.TID 0000.0001) >#-- here is the new value to add:
(PID.TID 0000.0001) > Shap_uvLength=-1.,
(PID.TID 0000.0001) > Shap_Trtau=5400.,
(PID.TID 0000.0001) > Shap_uvtau=1800.,
(PID.TID 0000.0001) > &
(PID.TID 0000.0001) 
(PID.TID 0000.0001)  SHAP_FILT_READPARMS: finished reading data.shap
(PID.TID 0000.0001) Shap_funct =   /* select Shapiro filter function */
(PID.TID 0000.0001)                       2
(PID.TID 0000.0001)     ;
(PID.TID 0000.0001) nShapT =   /* power of Shapiro filter for Temperat */
(PID.TID 0000.0001)                       4
(PID.TID 0000.0001)     ;
(PID.TID 0000.0001) nShapS =   /* power of Shapiro filter for Salinity */
(PID.TID 0000.0001)                       4
(PID.TID 0000.0001)     ;
(PID.TID 0000.0001) nShapUV =   /* power of Shapiro filter for momentum */
(PID.TID 0000.0001)                       4
(PID.TID 0000.0001)     ;
(PID.TID 0000.0001) shap_filt_uvStar = /* apply filter before Press. Solver */
(PID.TID 0000.0001)                   F
(PID.TID 0000.0001)     ;
(PID.TID 0000.0001) shap_filt_TrStagg = /* filter T,S before calc PhiHyd (staggerTimeStep) */
(PID.TID 0000.0001)                   T
(PID.TID 0000.0001)     ;
(PID.TID 0000.0001) Shap_alwaysExchUV = /* always exch(U,V)    nShapUV times*/
(PID.TID 0000.0001)                   T
(PID.TID 0000.0001)     ;
(PID.TID 0000.0001) Shap_alwaysExchTr = /* always exch(Tracer) nShapTr times*/
(PID.TID 0000.0001)                   F
(PID.TID 0000.0001)     ;
(PID.TID 0000.0001) nShapTrPhys =   /* power of physical-space filter (Tracer) */
(PID.TID 0000.0001)                       4
(PID.TID 0000.0001)     ;
(PID.TID 0000.0001) nShapUVPhys =   /* power of physical-space filter (Momentum) */
(PID.TID 0000.0001)                       4
(PID.TID 0000.0001)     ;
(PID.TID 0000.0001) Shap_Trtau =   /* time scale of Shapiro filter (Tracer) */
(PID.TID 0000.0001)                 5.400000000000000E+03
(PID.TID 0000.0001)     ;
(PID.TID 0000.0001) Shap_TrLength =   /* Length scale of Shapiro filter (Tracer) */
(PID.TID 0000.0001)                 0.000000000000000E+00
(PID.TID 0000.0001)     ;
(PID.TID 0000.0001) Shap_uvtau =   /* time scale of Shapiro filter (Momentum) */
(PID.TID 0000.0001)                 1.800000000000000E+03
(PID.TID 0000.0001)     ;
(PID.TID 0000.0001) Shap_uvLength =   /* Length scale of Shapiro filter (Momentum) */
(PID.TID 0000.0001)                -1.000000000000000E+00
(PID.TID 0000.0001)     ;
(PID.TID 0000.0001) Shap_noSlip =  /* No-slip parameter (0=Free-slip ; 1=No-slip)*/
(PID.TID 0000.0001)                 0.000000000000000E+00
(PID.TID 0000.0001)     ;
(PID.TID 0000.0001) Shap_diagFreq =   /* Frequency^-1 for diagnostic output (s)*/
(PID.TID 0000.0001)                 0.000000000000000E+00
(PID.TID 0000.0001)     ;
(PID.TID 0000.0001)  FIZHI_READPARMS: opening data.fizhi
(PID.TID 0000.0001)  OPEN_COPY_DATA_FILE: opening file data.fizhi
(PID.TID 0000.0001) // =======================================================
(PID.TID 0000.0001) // Parameter file "data.fizhi"
(PID.TID 0000.0001) // =======================================================
(PID.TID 0000.0001) ># Fizhi Parameters
(PID.TID 0000.0001) > &fizhi_list
(PID.TID 0000.0001) > nhmsbegin=000000,
(PID.TID 0000.0001) > nymdbegin=20040321,
(PID.TID 0000.0001) > runlength=0.003,
(PID.TID 0000.0001) > &
(PID.TID 0000.0001) 
(PID.TID 0000.0001)  CHANGING NUMBER OF MODEL TIMESTEPS TO        15
(PID.TID 0000.0001)  CHANGING END TIME TO     1800.00
   Begin Date     20040321   Begin Time            0
 Current Date     20040321 Current Time            0
(PID.TID 0000.0001)  DIAGNOSTICS_READPARMS: opening data.diagnostics
(PID.TID 0000.0001)  OPEN_COPY_DATA_FILE: opening file data.diagnostics
(PID.TID 0000.0001) // =======================================================
(PID.TID 0000.0001) // Parameter file "data.diagnostics"
(PID.TID 0000.0001) // =======================================================
(PID.TID 0000.0001) ># Diagnostic Package Choices
(PID.TID 0000.0001) > &diagnostics_list
(PID.TID 0000.0001) >      diag_mnc = .TRUE.,
(PID.TID 0000.0001) >    dumpatlast = .TRUE.,
(PID.TID 0000.0001) >  frequency(1) = 00.06,
(PID.TID 0000.0001) >   levels(1,1) = 1.,
(PID.TID 0000.0001) >   fields(1,1) = 'RADSWT  ','OSR     ','OLR     ','PLALBEDO','CLDFRC  ','PREACC  ',
(PID.TID 0000.0001) >                 'PRECON  ','EVAP    ','RADSWG  ','ALBNIRDF','ALBVISDF','LWGDOWN ',
(PID.TID 0000.0001) >                 'LWGUP   ','EFLUX   ','HFLUX   ','T2M     ','Q2M     ','UFLUX   ',
(PID.TID 0000.0001) >                 'VFLUX   ','U10M    ','V10M    ','PS      ','OSRCLR  ','OLRCLR  ',
(PID.TID 0000.0001) >                 'SWGCLR  ','LWGCLR  ','RSURF   ',
(PID.TID 0000.0001) >   filename(1) = 'SHfields',
(PID.TID 0000.0001) >  frequency(2) = -00.06,
(PID.TID 0000.0001) >   fields(1,2) = 'UVEL    ','VVEL    ','PHIHYD  ','WVEL    ','SALT    ','RELHUM  ',
(PID.TID 0000.0001) >                 'RCENTER ','THETA   ',
(PID.TID 0000.0001) >   filename(2) = 'MLfields',
(PID.TID 0000.0001) >  fileflags(2) = ' P3     ',
(PID.TID 0000.0001) >  frequency(3) = -00.06,
(PID.TID 0000.0001) >   fields(1,3) = 'UVELSQ  ','VVELSQ  ','THETASQ ','WVELSQ  ','PHIHYDSQ','SALTSQ   ',
(PID.TID 0000.0001) >                 'UV_VEL_C','WU_VEL  ','WV_VEL  ','VVELTH  ','WVELTH  ','VVELSLT  ',
(PID.TID 0000.0001) >                 'WVELSLT ','UVELSLT ','UVELTH  ','UVELPHI ','VVELPHI ',
(PID.TID 0000.0001) >   filename(3) = 'MFfields',
(PID.TID 0000.0001) >  fileflags(3) = ' P3     ',
(PID.TID 0000.0001) ># frequency(4) = -00.06,
(PID.TID 0000.0001) >#  levels(1,4) = 1.,2.,3.,4.,5.,6.,7.,8.,9.,10.,11.,12.,13.,14.,15.,16.,17.,18.,19.,20.,21.,22.,23.,24.,25.,26.,27.,28.,
(PID.TID 0000.0001) >#  fields(1,4) = 'RADSW   ','RADLW   ','TURBT   ','MOISTT  ','TURBQ   ','MOISTQ  ',
(PID.TID 0000.0001) >#                'TURBU   ','TURBV   ','DPPHYS  ',
(PID.TID 0000.0001) >#  filename(4) = 'PFfields',
(PID.TID 0000.0001) > &end
(PID.TID 0000.0001) >
(PID.TID 0000.0001) ># Parameter for Diagnostics of per level statistics:
(PID.TID 0000.0001) >#-----------------
(PID.TID 0000.0001) ># for each output-stream:
(PID.TID 0000.0001) >#  stat_fname(n) : prefix of the output file name (only 8.c long) for outp.stream n
(PID.TID 0000.0001) >#  stat_freq(n):< 0 : write snap-shot output every |stat_freq| seconds
(PID.TID 0000.0001) >#               > 0 : write time-average output every stat_freq seconds
(PID.TID 0000.0001) >#  stat_phase(n)    : write at time = stat_phase + multiple of |stat_freq|
(PID.TID 0000.0001) >#  stat_region(:,n) : list of "regions" (default: 1 region only=global)
(PID.TID 0000.0001) >#  stat_fields(:,n) : list of diagnostics fields (8.c) (see "available_diagnostics.log"
(PID.TID 0000.0001) >#                 file for the list of all available diag. in this particular config)
(PID.TID 0000.0001) >#-----------------
(PID.TID 0000.0001) > &DIAG_STATIS_PARMS
(PID.TID 0000.0001) >     stat_freq(1) = 1.00,
(PID.TID 0000.0001) >    stat_phase(1) = 0.,
(PID.TID 0000.0001) > stat_fields(1,1) = 'RADSWT  ','OSR     ','OLR     ','PLALBEDO','CLDFRC  ','PREACC  ',
(PID.TID 0000.0001) >                    'PRECON  ','EVAP    ','RADSWG  ','ALBNIRDF','ALBVISDF','LWGDOWN ',
(PID.TID 0000.0001) >                    'LWGUP   ','EFLUX   ','HFLUX   ','T2M     ','Q2M     ','UFLUX   ',
(PID.TID 0000.0001) >                    'VFLUX   ','U10M    ','V10M    ','PS      ','OSRCLR  ','OLRCLR  ',
(PID.TID 0000.0001) >                    'SWGCLR  ','LWGCLR  ',
(PID.TID 0000.0001) >    stat_fname(1) = 'GTfields',
(PID.TID 0000.0001) > &
(PID.TID 0000.0001) 
(PID.TID 0000.0001) S/R DIAGNOSTICS_READPARMS, read namelist "diagnostics_list": start
(PID.TID 0000.0001) S/R DIAGNOSTICS_READPARMS, read namelist "diagnostics_list": OK
(PID.TID 0000.0001) S/R DIAGNOSTICS_READPARMS, read namelist "DIAG_STATIS_PARMS": start
(PID.TID 0000.0001) S/R DIAGNOSTICS_READPARMS, read namelist "DIAG_STATIS_PARMS": OK
(PID.TID 0000.0001) -----------------------------------------------------
(PID.TID 0000.0001)  DIAGNOSTICS_READPARMS: active diagnostics summary:
(PID.TID 0000.0001) -----------------------------------------------------
(PID.TID 0000.0001) Creating Output Stream: SHfields
(PID.TID 0000.0001) Output Frequency:         0.060000 ; Phase:          0.000000
(PID.TID 0000.0001)  Averaging Freq.:         0.060000 , Phase:          0.000000 , Cycle:  1
(PID.TID 0000.0001)  Levels:       1.
(PID.TID 0000.0001) Fields:    RADSWT   OSR      OLR      PLALBEDO CLDFRC   PREACC   PRECON   EVAP     RADSWG   ALBNIRDF
(PID.TID 0000.0001) Fields:    ALBVISDF LWGDOWN  LWGUP    EFLUX    HFLUX    T2M      Q2M      UFLUX    VFLUX    U10M
(PID.TID 0000.0001) Fields:    V10M     PS       OSRCLR   OLRCLR   SWGCLR   LWGCLR   RSURF
(PID.TID 0000.0001) Creating Output Stream: MLfields
(PID.TID 0000.0001) Output Frequency:        -0.060000 ; Phase:          0.030000
(PID.TID 0000.0001)  Averaging Freq.:         0.000000 , Phase:          0.000000 , Cycle:  1
(PID.TID 0000.0001)  Levels:    will be set later
(PID.TID 0000.0001) Fields:    UVEL     VVEL     PHIHYD   WVEL     SALT     RELHUM   RCENTER  THETA
(PID.TID 0000.0001) Creating Output Stream: MFfields
(PID.TID 0000.0001) Output Frequency:        -0.060000 ; Phase:          0.030000
(PID.TID 0000.0001)  Averaging Freq.:         0.000000 , Phase:          0.000000 , Cycle:  1
(PID.TID 0000.0001)  Levels:    will be set later
(PID.TID 0000.0001) Fields:    UVELSQ   VVELSQ   THETASQ  WVELSQ   PHIHYDSQ SALTSQ   UV_VEL_C WU_VEL   WV_VEL   VVELTH
(PID.TID 0000.0001) Fields:    WVELTH   VVELSLT  WVELSLT  UVELSLT  UVELTH   UVELPHI  VVELPHI
(PID.TID 0000.0001) -----------------------------------------------------
(PID.TID 0000.0001)  DIAGNOSTICS_READPARMS: statistics diags. summary:
(PID.TID 0000.0001) Creating Stats. Output Stream: GTfields
(PID.TID 0000.0001) Output Frequency:         1.000000 ; Phase:          0.000000
(PID.TID 0000.0001)               0
(PID.TID 0000.0001) Fields:    RADSWT   OSR      OLR      PLALBEDO CLDFRC   PREACC   PRECON   EVAP     RADSWG   ALBNIRDF ALBVISDF LWGDOWN  LWGUP    EFLUX    HFLUX    T2M      Q2M      UFLUX    VFLUX    U10M     V10M     PS       OSRCLR   OLRCLR   SWGCLR   LWGCLR
(PID.TID 0000.0001) -----------------------------------------------------
(PID.TID 0000.0001) -----------------------------------------------------
(PID.TID 0000.0001) SET_PARMS: done
(PID.TID 0000.0001) Enter INI_VERTICAL_GRID: setInterFDr=    T ; setCenterDr=    F
(PID.TID 0000.0001) tile:   1 ; Read from file tile001.mitgrid
(PID.TID 0000.0001)   => xC yC dxF dyF rA xG yG dxV dyU rAz dxC dyC rAw rAs dxG dyG
(PID.TID 0000.0001) tile:   2 ; Read from file tile002.mitgrid
(PID.TID 0000.0001)   => xC yC dxF dyF rA xG yG dxV dyU rAz dxC dyC rAw rAs dxG dyG
(PID.TID 0000.0001) tile:   3 ; Read from file tile003.mitgrid
(PID.TID 0000.0001)   => xC yC dxF dyF rA xG yG dxV dyU rAz dxC dyC rAw rAs dxG dyG
(PID.TID 0000.0001) tile:   4 ; Read from file tile004.mitgrid
(PID.TID 0000.0001)   => xC yC dxF dyF rA xG yG dxV dyU rAz dxC dyC rAw rAs dxG dyG
(PID.TID 0000.0001) tile:   5 ; Read from file tile005.mitgrid
(PID.TID 0000.0001)   => xC yC dxF dyF rA xG yG dxV dyU rAz dxC dyC rAw rAs dxG dyG
(PID.TID 0000.0001) tile:   6 ; Read from file tile006.mitgrid
(PID.TID 0000.0001)   => xC yC dxF dyF rA xG yG dxV dyU rAz dxC dyC rAw rAs dxG dyG
(PID.TID 0000.0001) %MON XC_max                       =   1.7854351589505E+02
(PID.TID 0000.0001) %MON XC_min                       =  -1.7854351589505E+02
(PID.TID 0000.0001) %MON XC_mean                      =  -4.6999441375798E-15
(PID.TID 0000.0001) %MON XC_sd                        =   1.0355545336287E+02
(PID.TID 0000.0001) %MON XG_max                       =   1.8000000000000E+02
(PID.TID 0000.0001) %MON XG_min                       =  -1.7708797161002E+02
(PID.TID 0000.0001) %MON XG_mean                      =   1.8796250616675E+00
(PID.TID 0000.0001) %MON XG_sd                        =   1.0410625309932E+02
(PID.TID 0000.0001) %MON DXC_max                      =   3.2375185836900E+05
(PID.TID 0000.0001) %MON DXC_min                      =   1.1353730006923E+05
(PID.TID 0000.0001) %MON DXC_mean                     =   2.8606102525036E+05
(PID.TID 0000.0001) %MON DXC_sd                       =   3.4020997630307E+04
(PID.TID 0000.0001) %MON DXF_max                      =   3.2369947500827E+05
(PID.TID 0000.0001) %MON DXF_min                      =   1.2020820513318E+05
(PID.TID 0000.0001) %MON DXF_mean                     =   2.8605437324820E+05
(PID.TID 0000.0001) %MON DXF_sd                       =   3.4050524252539E+04
(PID.TID 0000.0001) %MON DXG_max                      =   3.2375195872773E+05
(PID.TID 0000.0001) %MON DXG_min                      =   1.0098378008791E+05
(PID.TID 0000.0001) %MON DXG_mean                     =   2.8603818508931E+05
(PID.TID 0000.0001) %MON DXG_sd                       =   3.4140406908005E+04
(PID.TID 0000.0001) %MON DXV_max                      =   3.2380418162750E+05
(PID.TID 0000.0001) %MON DXV_min                      =   8.0152299824136E+04
(PID.TID 0000.0001) %MON DXV_mean                     =   2.8603970633619E+05
(PID.TID 0000.0001) %MON DXV_sd                       =   3.4145142117723E+04
(PID.TID 0000.0001) %MON YC_max                       =   8.7940663871962E+01
(PID.TID 0000.0001) %MON YC_min                       =  -8.7940663871962E+01
(PID.TID 0000.0001) %MON YC_mean                      =   0.0000000000000E+00
(PID.TID 0000.0001) %MON YC_sd                        =   3.8676242969072E+01
(PID.TID 0000.0001) %MON YG_max                       =   9.0000000000000E+01
(PID.TID 0000.0001) %MON YG_min                       =  -9.0000000000000E+01
(PID.TID 0000.0001) %MON YG_mean                      =  -1.2094344438470E-15
(PID.TID 0000.0001) %MON YG_sd                        =   3.9086186579984E+01
(PID.TID 0000.0001) %MON DYC_max                      =   3.2375185836900E+05
(PID.TID 0000.0001) %MON DYC_min                      =   1.1353730006923E+05
(PID.TID 0000.0001) %MON DYC_mean                     =   2.8606102525036E+05
(PID.TID 0000.0001) %MON DYC_sd                       =   3.4020997630307E+04
(PID.TID 0000.0001) %MON DYF_max                      =   3.2369947500827E+05
(PID.TID 0000.0001) %MON DYF_min                      =   1.2020820513318E+05
(PID.TID 0000.0001) %MON DYF_mean                     =   2.8605437324820E+05
(PID.TID 0000.0001) %MON DYF_sd                       =   3.4050524252539E+04
(PID.TID 0000.0001) %MON DYG_max                      =   3.2375195872773E+05
(PID.TID 0000.0001) %MON DYG_min                      =   1.0098378008791E+05
(PID.TID 0000.0001) %MON DYG_mean                     =   2.8603818508931E+05
(PID.TID 0000.0001) %MON DYG_sd                       =   3.4140406908005E+04
(PID.TID 0000.0001) %MON DYU_max                      =   3.2380418162750E+05
(PID.TID 0000.0001) %MON DYU_min                      =   8.0152299824136E+04
(PID.TID 0000.0001) %MON DYU_mean                     =   2.8603970633619E+05
(PID.TID 0000.0001) %MON DYU_sd                       =   3.4145142117723E+04
(PID.TID 0000.0001) %MON RA_max                       =   1.0474757731659E+11
(PID.TID 0000.0001) %MON RA_min                       =   1.5497867056722E+10
(PID.TID 0000.0001) %MON RA_mean                      =   8.2985711332657E+10
(PID.TID 0000.0001) %MON RA_sd                        =   1.7448591913787E+10
(PID.TID 0000.0001) %MON RAW_max                      =   1.0481529828871E+11
(PID.TID 0000.0001) %MON RAW_min                      =   1.1465425741966E+10
(PID.TID 0000.0001) %MON RAW_mean                     =   8.2985711332657E+10
(PID.TID 0000.0001) %MON RAW_sd                       =   1.7503889570793E+10
(PID.TID 0000.0001) %MON RAS_max                      =   1.0481529828871E+11
(PID.TID 0000.0001) %MON RAS_min                      =   1.1465425741966E+10
(PID.TID 0000.0001) %MON RAS_mean                     =   8.2985711332657E+10
(PID.TID 0000.0001) %MON RAS_sd                       =   1.7503889570793E+10
(PID.TID 0000.0001) %MON RAZ_max                      =   1.0484349334619E+11
(PID.TID 0000.0001) %MON RAZ_min                      =   8.8317900612505E+09
(PID.TID 0000.0001) %MON RAZ_mean                     =   8.2992246709235E+10
(PID.TID 0000.0001) %MON RAZ_sd                       =   1.7482297311044E+10
(PID.TID 0000.0001) %MON AngleCS_max                  =   1.0000000000000E+00
(PID.TID 0000.0001) %MON AngleCS_min                  =   1.0000000000000E+00
(PID.TID 0000.0001) %MON AngleCS_mean                 =   1.0000000000000E+00
(PID.TID 0000.0001) %MON AngleCS_sd                   =   0.0000000000000E+00
(PID.TID 0000.0001) %MON AngleSN_max                  =   0.0000000000000E+00
(PID.TID 0000.0001) %MON AngleSN_min                  =   0.0000000000000E+00
(PID.TID 0000.0001) %MON AngleSN_mean                 =   0.0000000000000E+00
(PID.TID 0000.0001) %MON AngleSN_sd                   =   0.0000000000000E+00
(PID.TID 0000.0001) 
(PID.TID 0000.0001) INI_PHIREF: PhiRef/g [m] at level Center (integer)
(PID.TID 0000.0001)                      and at level Interface (half-int.) :
(PID.TID 0000.0001)  K=  0.5  ;  r=  101080.0  ;  phiRef/g=       0.000
(PID.TID 0000.0001)  K=  1.0  ;  r=   98553.0  ;  phiRef/g=     211.618
(PID.TID 0000.0001)  K=  1.5  ;  r=   96026.0  ;  phiRef/g=     429.193
(PID.TID 0000.0001)  K=  2.0  ;  r=   93499.0  ;  phiRef/g=     648.289
(PID.TID 0000.0001)  K=  2.5  ;  r=   90972.0  ;  phiRef/g=     876.016
(PID.TID 0000.0001)  K=  3.0  ;  r=   88445.0  ;  phiRef/g=    1105.324
(PID.TID 0000.0001)  K=  3.5  ;  r=   85918.0  ;  phiRef/g=    1344.193
(PID.TID 0000.0001)  K=  4.0  ;  r=   83391.0  ;  phiRef/g=    1584.709
(PID.TID 0000.0001)  K=  4.5  ;  r=   80864.0  ;  phiRef/g=    1835.875
(PID.TID 0000.0001)  K=  5.0  ;  r=   78337.0  ;  phiRef/g=    2089.621
(PID.TID 0000.0001)  K=  5.5  ;  r=   75810.0  ;  phiRef/g=    2355.346
(PID.TID 0000.0001)  K=  6.0  ;  r=   73283.0  ;  phiRef/g=    2623.773
(PID.TID 0000.0001)  K=  6.5  ;  r=   70756.0  ;  phiRef/g=    2905.769
(PID.TID 0000.0001)  K=  7.0  ;  r=   68229.0  ;  phiRef/g=    3190.604
(PID.TID 0000.0001)  K=  7.5  ;  r=   65702.0  ;  phiRef/g=    3490.936
(PID.TID 0000.0001)  K=  8.0  ;  r=   63175.0  ;  phiRef/g=    3794.260
(PID.TID 0000.0001)  K=  8.5  ;  r=   60648.0  ;  phiRef/g=    4115.449
(PID.TID 0000.0001)  K=  9.0  ;  r=   58121.0  ;  phiRef/g=    4439.808
(PID.TID 0000.0001)  K=  9.5  ;  r=   55594.0  ;  phiRef/g=    4784.988
(PID.TID 0000.0001)  K= 10.0  ;  r=   53067.0  ;  phiRef/g=    5133.542
(PID.TID 0000.0001)  K= 10.5  ;  r=   50540.0  ;  phiRef/g=    5506.684
(PID.TID 0000.0001)  K= 11.0  ;  r=   48013.0  ;  phiRef/g=    5883.438
(PID.TID 0000.0001)  K= 11.5  ;  r=   45486.0  ;  phiRef/g=    6289.688
(PID.TID 0000.0001)  K= 12.0  ;  r=   42959.0  ;  phiRef/g=    6699.831
(PID.TID 0000.0001)  K= 12.5  ;  r=   40432.0  ;  phiRef/g=    7146.048
(PID.TID 0000.0001)  K= 13.0  ;  r=   37905.0  ;  phiRef/g=    7597.208
(PID.TID 0000.0001)  K= 13.5  ;  r=   35378.0  ;  phiRef/g=    8093.639
(PID.TID 0000.0001)  K= 14.0  ;  r=   32851.0  ;  phiRef/g=    8595.509
(PID.TID 0000.0001)  K= 14.5  ;  r=   30324.0  ;  phiRef/g=    9156.007
(PID.TID 0000.0001)  K= 15.0  ;  r=   27797.0  ;  phiRef/g=    9724.314
(PID.TID 0000.0001)  K= 15.5  ;  r=   25270.0  ;  phiRef/g=   10372.073
(PID.TID 0000.0001)  K= 16.0  ;  r=   22743.0  ;  phiRef/g=   11028.733
(PID.TID 0000.0001)  K= 16.5  ;  r=   20216.0  ;  phiRef/g=   11799.753
(PID.TID 0000.0001)  K= 17.0  ;  r=   17689.0  ;  phiRef/g=   12596.319
(PID.TID 0000.0001)  K= 17.5  ;  r=   15162.0  ;  phiRef/g=   13577.072
(PID.TID 0000.0001)  K= 18.0  ;  r=   12635.0  ;  phiRef/g=   14594.997
(PID.TID 0000.0001)  K= 18.5  ;  r=   10108.0  ;  phiRef/g=   15964.899
(PID.TID 0000.0001)  K= 19.0  ;  r=    7581.0  ;  phiRef/g=   17488.721
(PID.TID 0000.0001)  K= 19.5  ;  r=    5054.0  ;  phiRef/g=   20101.180
(PID.TID 0000.0001)  K= 20.0  ;  r=    2527.0  ;  phiRef/g=   23003.912
(PID.TID 0000.0001)  K= 20.5  ;  r=       0.0  ;  phiRef/g=   38748.049
(PID.TID 0000.0001) // =======================================================
(PID.TID 0000.0001) // Field Model R_low (ini_masks_etc) at iteration          1
(PID.TID 0000.0001) // CMIN =          1.000000000000000E+32
(PID.TID 0000.0001) // CMAX =         -1.000000000000000E+32
(PID.TID 0000.0001) // CINT =          0.000000000000000E+00
(PID.TID 0000.0001) // SYMBOLS (CMIN->CMAX): -abcdefghijklmnopqrstuvwxyz+
(PID.TID 0000.0001) //                  0.0: .
(PID.TID 0000.0001) // RANGE I (Lo:Hi:Step):(  -1: 194:   1)
(PID.TID 0000.0001) // RANGE J (Lo:Hi:Step):(  34:  -1:  -1)
(PID.TID 0000.0001) // RANGE K (Lo:Hi:Step):(   1:   1:   1)
(PID.TID 0000.0001) // =======================================================
(PID.TID 0000.0001) // =======================================================
(PID.TID 0000.0001) // END OF FIELD                                          =
(PID.TID 0000.0001) // =======================================================
(PID.TID 0000.0001) 
(PID.TID 0000.0001) // =======================================================
(PID.TID 0000.0001) // Field Model Ro_surf (ini_masks_etc) at iteration          1
(PID.TID 0000.0001) // CMIN =          1.010800000000000E+05
(PID.TID 0000.0001) // CMAX =          1.010800000000000E+05
(PID.TID 0000.0001) // CINT =          0.000000000000000E+00
(PID.TID 0000.0001) // SYMBOLS (CMIN->CMAX): -abcdefghijklmnopqrstuvwxyz+
(PID.TID 0000.0001) //                  0.0: .
(PID.TID 0000.0001) // RANGE I (Lo:Hi:Step):(  -1: 194:   1)
(PID.TID 0000.0001) // RANGE J (Lo:Hi:Step):(  34:  -1:  -1)
(PID.TID 0000.0001) // RANGE K (Lo:Hi:Step):(   1:   1:   1)
(PID.TID 0000.0001) // =======================================================
(PID.TID 0000.0001) // =======================================================
(PID.TID 0000.0001) // END OF FIELD                                          =
(PID.TID 0000.0001) // =======================================================
(PID.TID 0000.0001) 
(PID.TID 0000.0001) // =======================================================
(PID.TID 0000.0001) // Field hFacC at iteration          1
(PID.TID 0000.0001) // CMIN =          1.000000000000000E+00
(PID.TID 0000.0001) // CMAX =          1.000000000000000E+00
(PID.TID 0000.0001) // CINT =          0.000000000000000E+00
(PID.TID 0000.0001) // SYMBOLS (CMIN->CMAX): -abcdefghijklmnopqrstuvwxyz+
(PID.TID 0000.0001) //                  0.0: .
(PID.TID 0000.0001) // RANGE I (Lo:Hi:Step):(  -1: 194:   1)
(PID.TID 0000.0001) // RANGE J (Lo:Hi:Step):(  34:  -1:  -1)
(PID.TID 0000.0001) // RANGE K (Lo:Hi:Step):(   1:   1:   1)
(PID.TID 0000.0001) // =======================================================
(PID.TID 0000.0001) // =======================================================
(PID.TID 0000.0001) // END OF FIELD                                          =
(PID.TID 0000.0001) // =======================================================
(PID.TID 0000.0001) 
(PID.TID 0000.0001) // =======================================================
(PID.TID 0000.0001) // Field hFacW at iteration          1
(PID.TID 0000.0001) // CMIN =          1.000000000000000E+00
(PID.TID 0000.0001) // CMAX =          1.000000000000000E+00
(PID.TID 0000.0001) // CINT =          0.000000000000000E+00
(PID.TID 0000.0001) // SYMBOLS (CMIN->CMAX): -abcdefghijklmnopqrstuvwxyz+
(PID.TID 0000.0001) //                  0.0: .
(PID.TID 0000.0001) // RANGE I (Lo:Hi:Step):(  -1: 194:   1)
(PID.TID 0000.0001) // RANGE J (Lo:Hi:Step):(  34:  -1:  -1)
(PID.TID 0000.0001) // RANGE K (Lo:Hi:Step):(   1:   1:   1)
(PID.TID 0000.0001) // =======================================================
(PID.TID 0000.0001) // =======================================================
(PID.TID 0000.0001) // END OF FIELD                                          =
(PID.TID 0000.0001) // =======================================================
(PID.TID 0000.0001) 
(PID.TID 0000.0001) // =======================================================
(PID.TID 0000.0001) // Field hFacS at iteration          1
(PID.TID 0000.0001) // CMIN =          1.000000000000000E+00
(PID.TID 0000.0001) // CMAX =          1.000000000000000E+00
(PID.TID 0000.0001) // CINT =          0.000000000000000E+00
(PID.TID 0000.0001) // SYMBOLS (CMIN->CMAX): -abcdefghijklmnopqrstuvwxyz+
(PID.TID 0000.0001) //                  0.0: .
(PID.TID 0000.0001) // RANGE I (Lo:Hi:Step):(  -1: 194:   1)
(PID.TID 0000.0001) // RANGE J (Lo:Hi:Step):(  34:  -1:  -1)
(PID.TID 0000.0001) // RANGE K (Lo:Hi:Step):(   1:   1:   1)
(PID.TID 0000.0001) // =======================================================
(PID.TID 0000.0001) // =======================================================
(PID.TID 0000.0001) // END OF FIELD                                          =
(PID.TID 0000.0001) // =======================================================
(PID.TID 0000.0001) 
(PID.TID 0000.0001) 
(PID.TID 0000.0001) // ===================================
(PID.TID 0000.0001) // GAD parameters :
(PID.TID 0000.0001) // ===================================
(PID.TID 0000.0001) tempAdvScheme =   /* Temp. Horiz.Advection scheme selector */
(PID.TID 0000.0001)                       2
(PID.TID 0000.0001)     ;
(PID.TID 0000.0001) tempVertAdvScheme =   /* Temp. Vert. Advection scheme selector */
(PID.TID 0000.0001)                       2
(PID.TID 0000.0001)     ;
(PID.TID 0000.0001) tempMultiDimAdvec =   /* use Muti-Dim Advec method for Temp */
(PID.TID 0000.0001)                   F
(PID.TID 0000.0001)     ;
(PID.TID 0000.0001) AdamsBashforthGt =   /* apply Adams-Bashforth extrapolation on Gt */
(PID.TID 0000.0001)                   T
(PID.TID 0000.0001)     ;
(PID.TID 0000.0001) AdamsBashforth_T =   /* apply Adams-Bashforth extrapolation on Temp */
(PID.TID 0000.0001)                   F
(PID.TID 0000.0001)     ;
(PID.TID 0000.0001) saltAdvScheme =   /* Salt. Horiz.advection scheme selector */
(PID.TID 0000.0001)                       3
(PID.TID 0000.0001)     ;
(PID.TID 0000.0001) saltVertAdvScheme =   /* Salt. Vert. Advection scheme selector */
(PID.TID 0000.0001)                       3
(PID.TID 0000.0001)     ;
(PID.TID 0000.0001) saltMultiDimAdvec =   /* use Muti-Dim Advec method for Salt */
(PID.TID 0000.0001)                   F
(PID.TID 0000.0001)     ;
(PID.TID 0000.0001) AdamsBashforthGs =   /* apply Adams-Bashforth extrapolation on Gs */
(PID.TID 0000.0001)                   T
(PID.TID 0000.0001)     ;
(PID.TID 0000.0001) AdamsBashforth_S =   /* apply Adams-Bashforth extrapolation on Salt */
(PID.TID 0000.0001)                   F
(PID.TID 0000.0001)     ;
(PID.TID 0000.0001) // ===================================
 Setting Alarm for: 20040321  000000,  with frequency:       3000, and Tag: radsw                                                                           
 Setting Alarm for: 20040321  000000,  with frequency:       3000, and Tag: radlw                                                                           
 Setting Alarm for: 20040321  000000,  with frequency:        400, and Tag: turb                                                                            
 Setting Alarm for: 20040321  000000,  with frequency:       1000, and Tag: moist                                                                           
 Setting Alarm for: 20040321  000000,  with frequency:          0, and Tag: pnt                                                                             
 Number of Total Tiles for bi=           1:         2048
 Number of Land  Tiles for bi=           1:            0
 Number of Total Tiles for bi=           2:         2048
 Number of Land  Tiles for bi=           2:            0
 Number of Total Tiles for bi=           3:         2048
 Number of Land  Tiles for bi=           3:            0
 Number of Total Tiles for bi=           4:         2048
 Number of Land  Tiles for bi=           4:            0
 Number of Total Tiles for bi=           5:         2048
 Number of Land  Tiles for bi=           5:            0
 Number of Total Tiles for bi=           6:         2048
 Number of Land  Tiles for bi=           6:            0
(PID.TID 0000.0001) ------------------------------------------------------------
(PID.TID 0000.0001) DIAGNOSTICS_SET_LEVELS: done
(PID.TID 0000.0001)  Total Nb of available Diagnostics: ndiagt= 384
(PID.TID 0000.0001)  write list of available Diagnostics to file: available_diagnostics.log
(PID.TID 0000.0001) SETDIAG: Allocate  1 x  1 Levels for Diagnostic # 209 RADSWT
(PID.TID 0000.0001) SETDIAG: Allocate  1 x  1 Levels for Diagnostic # 232 OSR
(PID.TID 0000.0001) SETDIAG: Allocate  1 x  1 Levels for Diagnostic # 198 OLR
(PID.TID 0000.0001) SETDIAG: Allocate  1 x  1 Levels for Diagnostic # 371 PLALBEDO
(PID.TID 0000.0001) SETDIAG: Allocate  1 x  1 Levels for Diagnostic # 262 CLDFRC
(PID.TID 0000.0001) SETDIAG: Allocate  1 x  1 Levels for Diagnostic # 182 PREACC
(PID.TID 0000.0001) SETDIAG: Allocate  1 x  1 Levels for Diagnostic # 183 PRECON
(PID.TID 0000.0001) SETDIAG: Allocate  1 x  1 Levels for Diagnostic # 213 EVAP
(PID.TID 0000.0001) SETDIAG: Allocate  1 x  1 Levels for Diagnostic # 166 RADSWG
(PID.TID 0000.0001) SETDIAG: Allocate  1 x  1 Levels for Diagnostic # 342 ALBNIRDF
(PID.TID 0000.0001) SETDIAG: Allocate  1 x  1 Levels for Diagnostic # 340 ALBVISDF
(PID.TID 0000.0001) SETDIAG: Allocate  1 x  1 Levels for Diagnostic # 207 LWGDOWN
(PID.TID 0000.0001) SETDIAG: Allocate  1 x  1 Levels for Diagnostic # 197 LWGUP
(PID.TID 0000.0001) SETDIAG: Allocate  1 x  1 Levels for Diagnostic # 161 EFLUX
(PID.TID 0000.0001) SETDIAG: Allocate  1 x  1 Levels for Diagnostic # 160 HFLUX
(PID.TID 0000.0001) SETDIAG: Allocate  1 x  1 Levels for Diagnostic # 266 T2M
(PID.TID 0000.0001) SETDIAG: Allocate  1 x  1 Levels for Diagnostic # 267 Q2M
(PID.TID 0000.0001) SETDIAG: Allocate  1 x  1 Levels for Diagnostic # 162 UFLUX
(PID.TID 0000.0001) SETDIAG: Allocate  1 x  1 Levels for Diagnostic # 163 VFLUX
(PID.TID 0000.0001) SETDIAG: Allocate  1 x  1 Levels for Diagnostic # 268 U10M
(PID.TID 0000.0001) SETDIAG: Allocate  1 x  1 Levels for Diagnostic # 269 V10M
(PID.TID 0000.0001) SETDIAG: Allocate  1 x  1 Levels for Diagnostic # 240 PS
(PID.TID 0000.0001) SETDIAG: Allocate  1 x  1 Levels for Diagnostic # 233 OSRCLR
(PID.TID 0000.0001) SETDIAG: Allocate  1 x  1 Levels for Diagnostic # 199 OLRCLR
(PID.TID 0000.0001) SETDIAG: Allocate  1 x  1 Levels for Diagnostic # 243 SWGCLR
(PID.TID 0000.0001) SETDIAG: Allocate  1 x  1 Levels for Diagnostic # 200 LWGCLR
(PID.TID 0000.0001) SETDIAG: Allocate  1 x  1 Levels for Diagnostic #  85 RSURF
(PID.TID 0000.0001) SETDIAG: Allocate 20 x  1 Levels for Diagnostic #  29 UVEL
(PID.TID 0000.0001) SETDIAG: Allocate 20 x  1 Levels for Diagnostic #  30 VVEL
(PID.TID 0000.0001) SETDIAG: Allocate 20 x  1 Levels for Diagnostic #  63 PHIHYD
(PID.TID 0000.0001) SETDIAG: Allocate 20 x  1 Levels for Diagnostic #  31 WVEL
(PID.TID 0000.0001) SETDIAG: Allocate 20 x  1 Levels for Diagnostic #  27 SALT
(PID.TID 0000.0001) SETDIAG: Allocate 20 x  1 Levels for Diagnostic #  28 RELHUM
(PID.TID 0000.0001) SETDIAG: Allocate 20 x  1 Levels for Diagnostic #  84 RCENTER
(PID.TID 0000.0001) SETDIAG: Allocate 20 x  1 Levels for Diagnostic #  26 THETA
(PID.TID 0000.0001) SETDIAG: Allocate 20 x  1 Levels for Diagnostic #  34 UVELSQ
(PID.TID 0000.0001) SETDIAG: Allocate 20 x  1 Levels for Diagnostic #  35 VVELSQ
(PID.TID 0000.0001) SETDIAG: Allocate 20 x  1 Levels for Diagnostic #  32 THETASQ
(PID.TID 0000.0001) SETDIAG: Allocate 20 x  1 Levels for Diagnostic #  36 WVELSQ
(PID.TID 0000.0001) SETDIAG: Allocate 20 x  1 Levels for Diagnostic #  64 PHIHYDSQ
(PID.TID 0000.0001) SETDIAG: Allocate 20 x  1 Levels for Diagnostic #  33 SALTSQ
(PID.TID 0000.0001) SETDIAG: Allocate 20 x  1 Levels for Diagnostic #  37 UV_VEL_C
(PID.TID 0000.0001) SETDIAG: Allocate 20 x  1 Levels for Diagnostic #  39 WU_VEL
(PID.TID 0000.0001) SETDIAG: Allocate 20 x  1 Levels for Diagnostic #  40 WV_VEL
(PID.TID 0000.0001) SETDIAG: Allocate 20 x  1 Levels for Diagnostic #  51 VVELTH
(PID.TID 0000.0001) SETDIAG: Allocate 20 x  1 Levels for Diagnostic #  52 WVELTH
(PID.TID 0000.0001) SETDIAG: Allocate 20 x  1 Levels for Diagnostic #  54 VVELSLT
(PID.TID 0000.0001) SETDIAG: Allocate 20 x  1 Levels for Diagnostic #  55 WVELSLT
(PID.TID 0000.0001) SETDIAG: Allocate 20 x  1 Levels for Diagnostic #  53 UVELSLT
(PID.TID 0000.0001) SETDIAG: Allocate 20 x  1 Levels for Diagnostic #  50 UVELTH
(PID.TID 0000.0001) SETDIAG: Allocate 20 x  1 Levels for Diagnostic #  56 UVELPHI
(PID.TID 0000.0001) SETDIAG: Allocate 20 x  1 Levels for Diagnostic #  57 VVELPHI
(PID.TID 0000.0001)   space allocated for all diagnostics:   527 levels
(PID.TID 0000.0001)   set mate pointer for diag # 162  UFLUX    , Parms: UM   163L1
(PID.TID 0000.0001)   set mate pointer for diag # 163  VFLUX    , Parms: VM   162L1
(PID.TID 0000.0001)   set mate pointer for diag # 268  U10M     , Parms: UM   269M1
(PID.TID 0000.0001)   set mate pointer for diag # 269  V10M     , Parms: VM   268M1
(PID.TID 0000.0001)   set mate pointer for diag #  29  UVEL     , Parms: UU   030MR
(PID.TID 0000.0001)   set mate pointer for diag #  30  VVEL     , Parms: VV   029MR
(PID.TID 0000.0001)   set mate pointer for diag #  34  UVELSQ   , Parms: UU   035MR
(PID.TID 0000.0001)   set mate pointer for diag #  35  VVELSQ   , Parms: VV   034MR
(PID.TID 0000.0001)   set mate pointer for diag #  37  UV_VEL_C , Parms: UM   037MR
(PID.TID 0000.0001)   set mate pointer for diag #  51  VVELTH   , Parms: VV   050MR
(PID.TID 0000.0001)   set mate pointer for diag #  54  VVELSLT  , Parms: VV   053MR
(PID.TID 0000.0001)   set mate pointer for diag #  53  UVELSLT  , Parms: UU   054MR
(PID.TID 0000.0001)   set mate pointer for diag #  50  UVELTH   , Parms: UU   051MR
(PID.TID 0000.0001)   set mate pointer for diag #  56  UVELPHI  , Parms: UU   057MR
(PID.TID 0000.0001)   set mate pointer for diag #  57  VVELPHI  , Parms: VV   056MR
(PID.TID 0000.0001) DIAGNOSTICS_SET_POINTERS: Set levels for Outp.Stream: MLfields
(PID.TID 0000.0001)  Levels:       1.   2.   3.   4.   5.   6.   7.   8.   9.  10.  11.  12.  13.  14.  15.  16.  17.  18.  19.  20.
(PID.TID 0000.0001) DIAGNOSTICS_SET_POINTERS: Set levels for Outp.Stream: MFfields
(PID.TID 0000.0001)  Levels:       1.   2.   3.   4.   5.   6.   7.   8.   9.  10.  11.  12.  13.  14.  15.  16.  17.  18.  19.  20.
(PID.TID 0000.0001) DIAGNOSTICS_SET_POINTERS: done
(PID.TID 0000.0001) ------------------------------------------------------------
(PID.TID 0000.0001) DIAGSTATS_SET_REGIONS: define no region
(PID.TID 0000.0001) ------------------------------------------------------------
(PID.TID 0000.0001) SETDIAG: Allocate  1 Levels for Stats-Diag # 209 RADSWT
(PID.TID 0000.0001) SETDIAG: Allocate  1 Levels for Stats-Diag # 232 OSR
(PID.TID 0000.0001) SETDIAG: Allocate  1 Levels for Stats-Diag # 198 OLR
(PID.TID 0000.0001) SETDIAG: Allocate  1 Levels for Stats-Diag # 371 PLALBEDO
(PID.TID 0000.0001) SETDIAG: Allocate  1 Levels for Stats-Diag # 262 CLDFRC
(PID.TID 0000.0001) SETDIAG: Allocate  1 Levels for Stats-Diag # 182 PREACC
(PID.TID 0000.0001) SETDIAG: Allocate  1 Levels for Stats-Diag # 183 PRECON
(PID.TID 0000.0001) SETDIAG: Allocate  1 Levels for Stats-Diag # 213 EVAP
(PID.TID 0000.0001) SETDIAG: Allocate  1 Levels for Stats-Diag # 166 RADSWG
(PID.TID 0000.0001) SETDIAG: Allocate  1 Levels for Stats-Diag # 342 ALBNIRDF
(PID.TID 0000.0001) SETDIAG: Allocate  1 Levels for Stats-Diag # 340 ALBVISDF
(PID.TID 0000.0001) SETDIAG: Allocate  1 Levels for Stats-Diag # 207 LWGDOWN
(PID.TID 0000.0001) SETDIAG: Allocate  1 Levels for Stats-Diag # 197 LWGUP
(PID.TID 0000.0001) SETDIAG: Allocate  1 Levels for Stats-Diag # 161 EFLUX
(PID.TID 0000.0001) SETDIAG: Allocate  1 Levels for Stats-Diag # 160 HFLUX
(PID.TID 0000.0001) SETDIAG: Allocate  1 Levels for Stats-Diag # 266 T2M
(PID.TID 0000.0001) SETDIAG: Allocate  1 Levels for Stats-Diag # 267 Q2M
(PID.TID 0000.0001) SETDIAG: Allocate  1 Levels for Stats-Diag # 162 UFLUX
(PID.TID 0000.0001) SETDIAG: Allocate  1 Levels for Stats-Diag # 163 VFLUX
(PID.TID 0000.0001) SETDIAG: Allocate  1 Levels for Stats-Diag # 268 U10M
(PID.TID 0000.0001) SETDIAG: Allocate  1 Levels for Stats-Diag # 269 V10M
(PID.TID 0000.0001) SETDIAG: Allocate  1 Levels for Stats-Diag # 240 PS
(PID.TID 0000.0001) SETDIAG: Allocate  1 Levels for Stats-Diag # 233 OSRCLR
(PID.TID 0000.0001) SETDIAG: Allocate  1 Levels for Stats-Diag # 199 OLRCLR
(PID.TID 0000.0001) SETDIAG: Allocate  1 Levels for Stats-Diag # 243 SWGCLR
(PID.TID 0000.0001) SETDIAG: Allocate  1 Levels for Stats-Diag # 200 LWGCLR
(PID.TID 0000.0001)   space allocated for all stats-diags:    26 levels
(PID.TID 0000.0001) DIAGSTATS_SET_POINTERS: done
(PID.TID 0000.0001) ------------------------------------------------------------
 Setting Alarm for: 20040321  000000,  with frequency:      60000, and Tag: diagtag01                                                                       
 Setting Alarm for: 20040321  000000,  with frequency:      60000, and Tag: diagtag02                                                                       
 Setting Alarm for: 20040321  000000,  with frequency:      60000, and Tag: diagtag03                                                                       
 Setting Alarm for: 20040321  000000,  with frequency:    1000000, and Tag: diagStg01                                                                       
(PID.TID 0000.0001) %MON fCori_max                    =   1.4535016908525E-04
(PID.TID 0000.0001) %MON fCori_min                    =  -1.4535016908525E-04
(PID.TID 0000.0001) %MON fCori_mean                   =   0.0000000000000E+00
(PID.TID 0000.0001) %MON fCori_sd                     =   8.3972192788621E-05
(PID.TID 0000.0001) %MON fCoriG_max                   =   1.4544410433286E-04
(PID.TID 0000.0001) %MON fCoriG_min                   =  -1.4544410433286E-04
(PID.TID 0000.0001) %MON fCoriG_mean                  =   0.0000000000000E+00
(PID.TID 0000.0001) %MON fCoriG_sd                    =   8.4860812167727E-05
(PID.TID 0000.0001) %MON fCoriCos_max                 =   1.4540341538469E-04
(PID.TID 0000.0001) %MON fCoriCos_min                 =   5.2264550201501E-06
(PID.TID 0000.0001) %MON fCoriCos_mean                =   1.1482595466044E-04
(PID.TID 0000.0001) %MON fCoriCos_sd                  =   3.0292878037194E-05
(PID.TID 0000.0001) INI_CG2D: CG2D normalisation factor =  9.8060549904498906E-06
(PID.TID 0000.0001) INI_CG2D: cg2dTolerance = 4.166463737598144E-10 (Area=5.0986421043E+14)
(PID.TID 0000.0001) 
(PID.TID 0000.0001) CONFIG_CHECK: OK
(PID.TID 0000.0001) // =======================================================
(PID.TID 0000.0001) // Model configuration
(PID.TID 0000.0001) // =======================================================
(PID.TID 0000.0001) //
(PID.TID 0000.0001) // "Physical" paramters ( PARM01 in namelist )
(PID.TID 0000.0001) //
(PID.TID 0000.0001) buoyancyRelation = ATMOSPHERIC
(PID.TID 0000.0001) fluidIsAir  =  /* fluid major constituent is Air */
(PID.TID 0000.0001)                   T
(PID.TID 0000.0001)     ;
(PID.TID 0000.0001) fluidIsWater=  /* fluid major constituent is Water */
(PID.TID 0000.0001)                   F
(PID.TID 0000.0001)     ;
(PID.TID 0000.0001) usingPCoords =  /* use p (or p*) vertical coordinate */
(PID.TID 0000.0001)                   T
(PID.TID 0000.0001)     ;
(PID.TID 0000.0001) usingZCoords =  /* use z (or z*) vertical coordinate */
(PID.TID 0000.0001)                   F
(PID.TID 0000.0001)     ;
(PID.TID 0000.0001) tRef =   /* Reference temperature profile ( oC or K ) */
(PID.TID 0000.0001)                 2.860000000000000E+02,      /* K =  1 */
(PID.TID 0000.0001)                 2.880000000000000E+02,      /* K =  2 */
(PID.TID 0000.0001)                 2.900000000000000E+02,      /* K =  3 */
(PID.TID 0000.0001)                 2.920000000000000E+02,      /* K =  4 */
(PID.TID 0000.0001)                 2.950000000000000E+02,      /* K =  5 */
(PID.TID 0000.0001)                 2.980000000000000E+02,      /* K =  6 */
(PID.TID 0000.0001)                 3.010000000000000E+02,      /* K =  7 */
(PID.TID 0000.0001)                 3.040000000000000E+02,      /* K =  8 */
(PID.TID 0000.0001)                 3.070000000000000E+02,      /* K =  9 */
(PID.TID 0000.0001)                 3.100000000000000E+02,      /* K = 10 */
(PID.TID 0000.0001)                 3.130000000000000E+02,      /* K = 11 */
(PID.TID 0000.0001)                 3.160000000000000E+02,      /* K = 12 */
(PID.TID 0000.0001)                 3.195000000000000E+02,      /* K = 13 */
(PID.TID 0000.0001)                 3.230000000000000E+02,      /* K = 14 */
(PID.TID 0000.0001)                 3.275000000000000E+02,      /* K = 15 */
(PID.TID 0000.0001)                 3.320000000000000E+02,      /* K = 16 */
(PID.TID 0000.0001)                 3.430000000000000E+02,      /* K = 17 */
(PID.TID 0000.0001)                 3.560000000000000E+02,      /* K = 18 */
(PID.TID 0000.0001)                 3.960000000000000E+02,      /* K = 19 */
(PID.TID 0000.0001)                 4.400000000000000E+02       /* K = 20 */
(PID.TID 0000.0001)     ;
(PID.TID 0000.0001) sRef =   /* Reference salinity profile ( psu ) */
(PID.TID 0000.0001)    20 @  0.000000000000000E+00              /* K =  1: 20 */
(PID.TID 0000.0001)     ;
(PID.TID 0000.0001) viscAh =   /* Lateral eddy viscosity ( m^2/s ) */
(PID.TID 0000.0001)                 0.000000000000000E+00
(PID.TID 0000.0001)     ;
(PID.TID 0000.0001) viscAhMax =   /* Maximum lateral eddy viscosity ( m^2/s ) */
(PID.TID 0000.0001)                 1.000000000000000E+21
(PID.TID 0000.0001)     ;
(PID.TID 0000.0001) viscAhGrid =   /* Grid dependent lateral eddy viscosity ( non-dim. ) */
(PID.TID 0000.0001)                 0.000000000000000E+00
(PID.TID 0000.0001)     ;
(PID.TID 0000.0001) useFullLeith =   /* Use Full Form of Leith Viscosity on/off flag*/
(PID.TID 0000.0001)                   F
(PID.TID 0000.0001)     ;
(PID.TID 0000.0001) useStrainTensionVisc =   /* Use StrainTension Form of Viscous Operator on/off flag*/
(PID.TID 0000.0001)                   F
(PID.TID 0000.0001)     ;
(PID.TID 0000.0001) useAreaViscLength =   /* Use area for visc length instead of geom. mean*/
(PID.TID 0000.0001)                   F
(PID.TID 0000.0001)     ;
(PID.TID 0000.0001) viscC2leith = /* Leith harmonic visc. factor (on grad(vort),non-dim.) */
(PID.TID 0000.0001)                 0.000000000000000E+00
(PID.TID 0000.0001)     ;
(PID.TID 0000.0001) viscC2leithD = /* Leith harmonic viscosity factor (on grad(div),non-dim.) */
(PID.TID 0000.0001)                 0.000000000000000E+00
(PID.TID 0000.0001)     ;
(PID.TID 0000.0001) viscC2smag =   /* Smagorinsky harmonic viscosity factor (non-dim.) */
(PID.TID 0000.0001)                 0.000000000000000E+00
(PID.TID 0000.0001)     ;
(PID.TID 0000.0001) viscA4 =   /* Lateral biharmonic viscosity ( m^4/s ) */
(PID.TID 0000.0001)                 0.000000000000000E+00
(PID.TID 0000.0001)     ;
(PID.TID 0000.0001) viscA4Max =   /* Maximum biharmonic viscosity ( m^2/s ) */
(PID.TID 0000.0001)                 1.000000000000000E+21
(PID.TID 0000.0001)     ;
(PID.TID 0000.0001) viscA4Grid =   /* Grid dependent biharmonic viscosity ( non-dim. ) */
(PID.TID 0000.0001)                 0.000000000000000E+00
(PID.TID 0000.0001)     ;
(PID.TID 0000.0001) viscC4leith = /* Leith biharm viscosity factor (on grad(vort), non-dim.) */
(PID.TID 0000.0001)                 0.000000000000000E+00
(PID.TID 0000.0001)     ;
(PID.TID 0000.0001) viscC4leithD = /* Leith biharm viscosity factor (on grad(div), non-dim.) */
(PID.TID 0000.0001)                 0.000000000000000E+00
(PID.TID 0000.0001)     ;
(PID.TID 0000.0001) viscC4Smag = /* Smagorinsky biharm viscosity factor (non-dim) */
(PID.TID 0000.0001)                 0.000000000000000E+00
(PID.TID 0000.0001)     ;
(PID.TID 0000.0001) no_slip_sides =  /* Viscous BCs: No-slip sides */
(PID.TID 0000.0001)                   F
(PID.TID 0000.0001)     ;
(PID.TID 0000.0001) sideDragFactor = /* side-drag scaling factor (non-dim) */
(PID.TID 0000.0001)                 2.000000000000000E+00
(PID.TID 0000.0001)     ;
(PID.TID 0000.0001) viscAr =   /* Vertical eddy viscosity ( units of r^2/s ) */
(PID.TID 0000.0001)                 0.000000000000000E+00
(PID.TID 0000.0001)     ;
(PID.TID 0000.0001) no_slip_bottom =  /* Viscous BCs: No-slip bottom */
(PID.TID 0000.0001)                   F
(PID.TID 0000.0001)     ;
(PID.TID 0000.0001) bottomDragLinear = /* linear bottom-drag coefficient ( 1/s ) */
(PID.TID 0000.0001)                 0.000000000000000E+00
(PID.TID 0000.0001)     ;
(PID.TID 0000.0001) bottomDragQuadratic = /* quadratic bottom-drag coeff. ( 1/m ) */
(PID.TID 0000.0001)                 0.000000000000000E+00
(PID.TID 0000.0001)     ;
(PID.TID 0000.0001) diffKhT =   /* Laplacian diffusion of heat laterally ( m^2/s ) */
(PID.TID 0000.0001)                 0.000000000000000E+00
(PID.TID 0000.0001)     ;
(PID.TID 0000.0001) diffK4T =   /* Bihaarmonic diffusion of heat laterally ( m^4/s ) */
(PID.TID 0000.0001)                 0.000000000000000E+00
(PID.TID 0000.0001)     ;
(PID.TID 0000.0001) diffKhS =   /* Laplacian diffusion of salt laterally ( m^2/s ) */
(PID.TID 0000.0001)                 0.000000000000000E+00
(PID.TID 0000.0001)     ;
(PID.TID 0000.0001) diffK4S =   /* Bihaarmonic diffusion of salt laterally ( m^4/s ) */
(PID.TID 0000.0001)                 0.000000000000000E+00
(PID.TID 0000.0001)     ;
(PID.TID 0000.0001) diffKrNrT = /* vertical profile of vertical diffusion of Temp ( m^2/s )*/
(PID.TID 0000.0001)    20 @  0.000000000000000E+00              /* K =  1: 20 */
(PID.TID 0000.0001)     ;
(PID.TID 0000.0001) diffKrNrS = /* vertical profile of vertical diffusion of Salt ( m^2/s )*/
(PID.TID 0000.0001)    20 @  0.000000000000000E+00              /* K =  1: 20 */
(PID.TID 0000.0001)     ;
(PID.TID 0000.0001) diffKrBL79surf =   /* Surface diffusion for Bryan and Lewis 1979 ( m^2/s ) */
(PID.TID 0000.0001)                 0.000000000000000E+00
(PID.TID 0000.0001)     ;
(PID.TID 0000.0001) diffKrBL79deep =   /* Deep diffusion for Bryan and Lewis 1979 ( m^2/s ) */
(PID.TID 0000.0001)                 0.000000000000000E+00
(PID.TID 0000.0001)     ;
(PID.TID 0000.0001) diffKrBL79scl =   /* Depth scale for Bryan and Lewis 1979 ( m ) */
(PID.TID 0000.0001)                 2.000000000000000E+02
(PID.TID 0000.0001)     ;
(PID.TID 0000.0001) diffKrBL79Ho =   /* Turning depth for Bryan and Lewis 1979 ( m ) */
(PID.TID 0000.0001)                -2.000000000000000E+03
(PID.TID 0000.0001)     ;
(PID.TID 0000.0001) Equation of State : eosType = IDEALG ;
(PID.TID 0000.0001) tAlpha =   /* Linear EOS thermal expansion coefficient ( 1/oC ) */
(PID.TID 0000.0001)                 1.234567000000000E+05
(PID.TID 0000.0001)     ;
(PID.TID 0000.0001) sBeta =   /* Linear EOS haline contraction coefficient ( 1/psu ) */
(PID.TID 0000.0001)                 1.234567000000000E+05
(PID.TID 0000.0001)     ;
(PID.TID 0000.0001) atm_Rd =  /* gas constant for dry air ( J/kg/K ) */
(PID.TID 0000.0001)                 2.868571428571428E+02
(PID.TID 0000.0001)     ;
(PID.TID 0000.0001) atm_Cp =  /* specific heat (Cp) of dry air ( J/kg/K ) */
(PID.TID 0000.0001)                 1.004000000000000E+03
(PID.TID 0000.0001)     ;
(PID.TID 0000.0001) atm_kappa =  /* kappa (=Rd/Cp ) of dry air */
(PID.TID 0000.0001)                 2.857142857142857E-01
(PID.TID 0000.0001)     ;
(PID.TID 0000.0001) atm_Rq = /* water vap. specific vol. anomaly relative to dry air */
(PID.TID 0000.0001)                 6.078000000000000E-01
(PID.TID 0000.0001)     ;
(PID.TID 0000.0001) atm_Po =  /* standard reference pressure ( Pa ) */
(PID.TID 0000.0001)                 1.000000000000000E+05
(PID.TID 0000.0001)     ;
(PID.TID 0000.0001) integr_GeoPot =  /* select how the geopotential is integrated */
(PID.TID 0000.0001)                       2
(PID.TID 0000.0001)     ;
(PID.TID 0000.0001) selectFindRoSurf=  /* select how Surf.Ref. pressure is defined */
(PID.TID 0000.0001)                       0
(PID.TID 0000.0001)     ;
(PID.TID 0000.0001) rhonil =   /* Reference density ( kg/m^3 ) */
(PID.TID 0000.0001)                 1.000000000000000E+00
(PID.TID 0000.0001)     ;
(PID.TID 0000.0001) rhoConst =   /* Reference density ( kg/m^3 ) */
(PID.TID 0000.0001)                 1.000000000000000E+00
(PID.TID 0000.0001)     ;
(PID.TID 0000.0001) rhoFacC = /* normalized Reference density @ cell-Center (-) */
(PID.TID 0000.0001)    20 @  1.000000000000000E+00              /* K =  1: 20 */
(PID.TID 0000.0001)     ;
(PID.TID 0000.0001) rhoFacF = /* normalized Reference density @ W-Interface (-) */
(PID.TID 0000.0001)    21 @  1.000000000000000E+00              /* K =  1: 21 */
(PID.TID 0000.0001)     ;
(PID.TID 0000.0001) rhoConstFresh =   /* Reference density ( kg/m^3 ) */
(PID.TID 0000.0001)                 1.000000000000000E+00
(PID.TID 0000.0001)     ;
(PID.TID 0000.0001) gravity =   /* Gravitational acceleration ( m/s^2 ) */
(PID.TID 0000.0001)                 9.810000000000001E+00
(PID.TID 0000.0001)     ;
(PID.TID 0000.0001) gBaro =   /* Barotropic gravity ( m/s^2 ) */
(PID.TID 0000.0001)                 9.810000000000001E+00
(PID.TID 0000.0001)     ;
(PID.TID 0000.0001) rotationPeriod =   /* Rotation Period ( s ) */
(PID.TID 0000.0001)                 8.640000000000000E+04
(PID.TID 0000.0001)     ;
(PID.TID 0000.0001) omega =   /* Angular velocity ( rad/s ) */
(PID.TID 0000.0001)                 7.272205216643039E-05
(PID.TID 0000.0001)     ;
(PID.TID 0000.0001) f0 =   /* Reference coriolis parameter ( 1/s ) */
(PID.TID 0000.0001)                 1.000000000000000E-04
(PID.TID 0000.0001)     ;
(PID.TID 0000.0001) beta =   /* Beta ( 1/(m.s) ) */
(PID.TID 0000.0001)                 9.999999999999998E-12
(PID.TID 0000.0001)     ;
(PID.TID 0000.0001) freeSurfFac =   /* Implicit free surface factor */
(PID.TID 0000.0001)                 1.000000000000000E+00
(PID.TID 0000.0001)     ;
(PID.TID 0000.0001) implicitFreeSurface =   /* Implicit free surface on/off flag */
(PID.TID 0000.0001)                   T
(PID.TID 0000.0001)     ;
(PID.TID 0000.0001) rigidLid =   /* Rigid lid on/off flag */
(PID.TID 0000.0001)                   F
(PID.TID 0000.0001)     ;
(PID.TID 0000.0001) implicSurfPress =   /* Surface Pressure implicit factor (0-1)*/
(PID.TID 0000.0001)                 1.000000000000000E+00
(PID.TID 0000.0001)     ;
(PID.TID 0000.0001) implicDiv2Dflow =   /* Barot. Flow Div. implicit factor (0-1)*/
(PID.TID 0000.0001)                 1.000000000000000E+00
(PID.TID 0000.0001)     ;
(PID.TID 0000.0001) exactConserv =   /* Exact Volume Conservation on/off flag*/
(PID.TID 0000.0001)                   T
(PID.TID 0000.0001)     ;
(PID.TID 0000.0001) uniformLin_PhiSurf =   /* use uniform Bo_surf on/off flag*/
(PID.TID 0000.0001)                   F
(PID.TID 0000.0001)     ;
(PID.TID 0000.0001) nonlinFreeSurf =   /* Non-linear Free Surf. options (-1,0,1,2,3)*/
(PID.TID 0000.0001)                       4
(PID.TID 0000.0001)     ;
(PID.TID 0000.0001)      -1,0= Off ; 1,2,3= On, 2=+rescale gU,gV, 3=+update cg2d solv.
(PID.TID 0000.0001) hFacInf =   /* lower threshold for hFac (nonlinFreeSurf only)*/
(PID.TID 0000.0001)                 2.000000000000000E-01
(PID.TID 0000.0001)     ;
(PID.TID 0000.0001) hFacSup =   /* upper threshold for hFac (nonlinFreeSurf only)*/
(PID.TID 0000.0001)                 2.000000000000000E+00
(PID.TID 0000.0001)     ;
(PID.TID 0000.0001) select_rStar =   /* r* Coordinate options (not yet implemented)*/
(PID.TID 0000.0001)                       2
(PID.TID 0000.0001)     ;
(PID.TID 0000.0001) useRealFreshWaterFlux =   /* Real Fresh Water Flux on/off flag*/
(PID.TID 0000.0001)                   F
(PID.TID 0000.0001)     ;
(PID.TID 0000.0001) convertFW2Salt = /* convert F.W. Flux to Salt Flux (-1=use local S)(ppt)*/
(PID.TID 0000.0001)                 3.500000000000000E+01
(PID.TID 0000.0001)     ;
(PID.TID 0000.0001) use3Dsolver = /* use 3-D pressure solver on/off flag */
(PID.TID 0000.0001)                   F
(PID.TID 0000.0001)     ;
(PID.TID 0000.0001) nonHydrostatic =  /* Non-Hydrostatic on/off flag */
(PID.TID 0000.0001)                   F
(PID.TID 0000.0001)     ;
(PID.TID 0000.0001) nh_Am2 = /* Non-Hydrostatic terms scaling factor */
(PID.TID 0000.0001)                 1.000000000000000E+00
(PID.TID 0000.0001)     ;
(PID.TID 0000.0001) quasiHydrostatic = /* Quasi-Hydrostatic on/off flag */
(PID.TID 0000.0001)                   F
(PID.TID 0000.0001)     ;
(PID.TID 0000.0001) momStepping =  /* Momentum equation on/off flag */
(PID.TID 0000.0001)                   T
(PID.TID 0000.0001)     ;
(PID.TID 0000.0001) vectorInvariantMomentum= /* Vector-Invariant Momentum on/off */
(PID.TID 0000.0001)                   T
(PID.TID 0000.0001)     ;
(PID.TID 0000.0001) momAdvection =  /* Momentum advection on/off flag */
(PID.TID 0000.0001)                   T
(PID.TID 0000.0001)     ;
(PID.TID 0000.0001) momViscosity =  /* Momentum viscosity on/off flag */
(PID.TID 0000.0001)                   T
(PID.TID 0000.0001)     ;
(PID.TID 0000.0001) momImplVertAdv =/* Momentum implicit vert. advection on/off*/
(PID.TID 0000.0001)                   F
(PID.TID 0000.0001)     ;
(PID.TID 0000.0001) implicitViscosity = /* Implicit viscosity on/off flag */
(PID.TID 0000.0001)                   F
(PID.TID 0000.0001)     ;
(PID.TID 0000.0001) metricTerms =  /* metric-Terms on/off flag */
(PID.TID 0000.0001)                   F
(PID.TID 0000.0001)     ;
(PID.TID 0000.0001) useNHMTerms = /* Non-Hydrostatic Metric-Terms on/off */
(PID.TID 0000.0001)                   F
(PID.TID 0000.0001)     ;
(PID.TID 0000.0001) useConstantF =  /* use Constant f0 Coriolis flag */
(PID.TID 0000.0001)                   F
(PID.TID 0000.0001)     ;
(PID.TID 0000.0001) useBetaPlaneF = /* use Beta-Plane Coriolis flag */
(PID.TID 0000.0001)                   F
(PID.TID 0000.0001)     ;
(PID.TID 0000.0001) useSphereF  =   /* use Spherical Coriolis flag */
(PID.TID 0000.0001)                   T
(PID.TID 0000.0001)     ;
(PID.TID 0000.0001) use3dCoriolis = /* 3-D Coriolis on/off flag */
(PID.TID 0000.0001)                   F
(PID.TID 0000.0001)     ;
(PID.TID 0000.0001) useCoriolis =  /* Coriolis on/off flag */
(PID.TID 0000.0001)                   T
(PID.TID 0000.0001)     ;
(PID.TID 0000.0001) useCDscheme =  /* CD scheme on/off flag */
(PID.TID 0000.0001)                   F
(PID.TID 0000.0001)     ;
(PID.TID 0000.0001) useJamartWetPoints= /* Coriolis WetPoints method flag */
(PID.TID 0000.0001)                   F
(PID.TID 0000.0001)     ;
(PID.TID 0000.0001) useJamartMomAdv= /* V.I. Non-linear terms Jamart flag */
(PID.TID 0000.0001)                   F
(PID.TID 0000.0001)     ;
(PID.TID 0000.0001) SadournyCoriolis= /* Sadourny Coriolis discr. flag */
(PID.TID 0000.0001)                   T
(PID.TID 0000.0001)     ;
(PID.TID 0000.0001) upwindVorticity= /* Upwind bias vorticity flag */
(PID.TID 0000.0001)                   F
(PID.TID 0000.0001)     ;
(PID.TID 0000.0001) useAbsVorticity= /* Work with f+zeta in Coriolis */
(PID.TID 0000.0001)                   T
(PID.TID 0000.0001)     ;
(PID.TID 0000.0001) highOrderVorticity= /* High order interp. of vort. flag */
(PID.TID 0000.0001)                   F
(PID.TID 0000.0001)     ;
(PID.TID 0000.0001) upwindShear= /* Upwind vertical Shear advection flag */
(PID.TID 0000.0001)                   F
(PID.TID 0000.0001)     ;
(PID.TID 0000.0001) selectKEscheme= /* Kinetic Energy scheme selector */
(PID.TID 0000.0001)                       3
(PID.TID 0000.0001)     ;
(PID.TID 0000.0001) momForcing =  /* Momentum forcing on/off flag */
(PID.TID 0000.0001)                   T
(PID.TID 0000.0001)     ;
(PID.TID 0000.0001) momPressureForcing =  /* Momentum pressure term on/off flag */
(PID.TID 0000.0001)                   T
(PID.TID 0000.0001)     ;
(PID.TID 0000.0001) implicitIntGravWave= /* Implicit Internal Gravity Wave flag */
(PID.TID 0000.0001)                   F
(PID.TID 0000.0001)     ;
(PID.TID 0000.0001) staggerTimeStep =   /* Stagger time stepping on/off flag */
(PID.TID 0000.0001)                   T
(PID.TID 0000.0001)     ;
(PID.TID 0000.0001) multiDimAdvection =   /* enable/disable Multi-Dim Advection */
(PID.TID 0000.0001)                   T
(PID.TID 0000.0001)     ;
(PID.TID 0000.0001) useMultiDimAdvec =   /* Multi-Dim Advection is/is-not used */
(PID.TID 0000.0001)                   F
(PID.TID 0000.0001)     ;
(PID.TID 0000.0001) implicitDiffusion =/* Implicit Diffusion on/off flag */
(PID.TID 0000.0001)                   F
(PID.TID 0000.0001)     ;
(PID.TID 0000.0001) tempStepping =  /* Temperature equation on/off flag */
(PID.TID 0000.0001)                   T
(PID.TID 0000.0001)     ;
(PID.TID 0000.0001) tempAdvection=  /* Temperature advection on/off flag */
(PID.TID 0000.0001)                   T
(PID.TID 0000.0001)     ;
(PID.TID 0000.0001) tempImplVertAdv =/* Temp. implicit vert. advection on/off */
(PID.TID 0000.0001)                   F
(PID.TID 0000.0001)     ;
(PID.TID 0000.0001) tempForcing  =  /* Temperature forcing on/off flag */
(PID.TID 0000.0001)                   T
(PID.TID 0000.0001)     ;
(PID.TID 0000.0001) saltStepping =  /* Salinity equation on/off flag */
(PID.TID 0000.0001)                   T
(PID.TID 0000.0001)     ;
(PID.TID 0000.0001) saltAdvection=  /* Salinity advection on/off flag */
(PID.TID 0000.0001)                   T
(PID.TID 0000.0001)     ;
(PID.TID 0000.0001) saltImplVertAdv =/* Sali. implicit vert. advection on/off */
(PID.TID 0000.0001)                   F
(PID.TID 0000.0001)     ;
(PID.TID 0000.0001) saltForcing  =  /* Salinity forcing on/off flag */
(PID.TID 0000.0001)                   T
(PID.TID 0000.0001)     ;
(PID.TID 0000.0001)  readBinaryPrec = /* Precision used for reading binary files */
(PID.TID 0000.0001)                      64
(PID.TID 0000.0001)     ;
(PID.TID 0000.0001) writeBinaryPrec = /* Precision used for writing binary files */
(PID.TID 0000.0001)                      64
(PID.TID 0000.0001)     ;
(PID.TID 0000.0001)  globalFiles = /* write "global" (=not per tile) files */
(PID.TID 0000.0001)                   F
(PID.TID 0000.0001)     ;
(PID.TID 0000.0001)  useSingleCpuIO = /* only master MPI process does I/O */
(PID.TID 0000.0001)                   F
(PID.TID 0000.0001)     ;
(PID.TID 0000.0001)  debugMode  =  /* Debug Mode on/off flag */
(PID.TID 0000.0001)                   F
(PID.TID 0000.0001)     ;
(PID.TID 0000.0001)    debLevA  =  /* 1rst level of debugging */
(PID.TID 0000.0001)                       1
(PID.TID 0000.0001)     ;
(PID.TID 0000.0001)    debLevB  =  /* 2nd  level of debugging */
(PID.TID 0000.0001)                       2
(PID.TID 0000.0001)     ;
(PID.TID 0000.0001)  debugLevel =  /* select debugging level */
(PID.TID 0000.0001)                       1
(PID.TID 0000.0001)     ;
(PID.TID 0000.0001) //
(PID.TID 0000.0001) // Elliptic solver(s) paramters ( PARM02 in namelist )
(PID.TID 0000.0001) //
(PID.TID 0000.0001) cg2dMaxIters =   /* Upper limit on 2d con. grad iterations  */
(PID.TID 0000.0001)                     200
(PID.TID 0000.0001)     ;
(PID.TID 0000.0001) cg2dChkResFreq =   /* 2d con. grad convergence test frequency */
(PID.TID 0000.0001)                       1
(PID.TID 0000.0001)     ;
(PID.TID 0000.0001) cg2dTargetResidual =   /* 2d con. grad target residual  */
(PID.TID 0000.0001)                 1.000000000000000E-07
(PID.TID 0000.0001)     ;
(PID.TID 0000.0001) cg2dTargetResWunit =   /* CG2d target residual [W units] */
(PID.TID 0000.0001)                 1.000000000000001E-17
(PID.TID 0000.0001)     ;
(PID.TID 0000.0001) cg2dPreCondFreq =   /* Freq. for updating cg2d preconditioner */
(PID.TID 0000.0001)                       1
(PID.TID 0000.0001)     ;
(PID.TID 0000.0001) //
(PID.TID 0000.0001) // Time stepping paramters ( PARM03 in namelist )
(PID.TID 0000.0001) //
(PID.TID 0000.0001) nIter0 =   /* Run starting timestep number  */
(PID.TID 0000.0001)                       0
(PID.TID 0000.0001)     ;
(PID.TID 0000.0001) nTimeSteps =   /* Number of timesteps */
(PID.TID 0000.0001)                      15
(PID.TID 0000.0001)     ;
(PID.TID 0000.0001) deltaTmom =   /* Momentum equation timestep ( s ) */
(PID.TID 0000.0001)                 1.200000000000000E+02
(PID.TID 0000.0001)     ;
(PID.TID 0000.0001) deltaTfreesurf =   /* FreeSurface equation timestep ( s ) */
(PID.TID 0000.0001)                 1.200000000000000E+02
(PID.TID 0000.0001)     ;
(PID.TID 0000.0001) dTtracerLev =   /* Tracer equation timestep ( s ) */
(PID.TID 0000.0001)    20 @  1.200000000000000E+02              /* K =  1: 20 */
(PID.TID 0000.0001)     ;
(PID.TID 0000.0001) deltaTClock  =   /* Model clock timestep ( s ) */
(PID.TID 0000.0001)                 1.200000000000000E+02
(PID.TID 0000.0001)     ;
(PID.TID 0000.0001) cAdjFreq =   /* Convective adjustment interval ( s ) */
(PID.TID 0000.0001)                 0.000000000000000E+00
(PID.TID 0000.0001)     ;
(PID.TID 0000.0001) momForcingOutAB = /* =1: take Momentum Forcing out of Adams-Bash. stepping */
(PID.TID 0000.0001)                       1
(PID.TID 0000.0001)     ;
(PID.TID 0000.0001) tracForcingOutAB = /* =1: take T,S,pTr Forcing out of Adams-Bash. stepping */
(PID.TID 0000.0001)                       1
(PID.TID 0000.0001)     ;
(PID.TID 0000.0001) momDissip_In_AB = /* put Dissipation Tendency in Adams-Bash. stepping */
(PID.TID 0000.0001)                   T
(PID.TID 0000.0001)     ;
(PID.TID 0000.0001) doAB_onGtGs = /* apply AB on Tendencies (rather than on T,S)*/
(PID.TID 0000.0001)                   T
(PID.TID 0000.0001)     ;
(PID.TID 0000.0001) abEps =   /* Adams-Bashforth-2 stabilizing weight */
(PID.TID 0000.0001)                 1.000000000000000E-01
(PID.TID 0000.0001)     ;
(PID.TID 0000.0001) baseTime =   /* Model base time ( s ). */
(PID.TID 0000.0001)                 0.000000000000000E+00
(PID.TID 0000.0001)     ;
(PID.TID 0000.0001) startTime =   /* Run start time ( s ). */
(PID.TID 0000.0001)                 0.000000000000000E+00
(PID.TID 0000.0001)     ;
(PID.TID 0000.0001) endTime =   /* Integration ending time ( s ). */
(PID.TID 0000.0001)                 1.800000000000000E+03
(PID.TID 0000.0001)     ;
(PID.TID 0000.0001) pChkPtFreq =   /* Permanent restart/checkpoint file interval ( s ). */
(PID.TID 0000.0001)                 0.000000000000000E+00
(PID.TID 0000.0001)     ;
(PID.TID 0000.0001) chkPtFreq =   /* Rolling restart/checkpoint file interval ( s ). */
(PID.TID 0000.0001)                 0.000000000000000E+00
(PID.TID 0000.0001)     ;
(PID.TID 0000.0001) pickup_write_mdsio =   /* Model IO flag. */
(PID.TID 0000.0001)                   T
(PID.TID 0000.0001)     ;
(PID.TID 0000.0001) pickup_read_mdsio =   /* Model IO flag. */
(PID.TID 0000.0001)                   T
(PID.TID 0000.0001)     ;
(PID.TID 0000.0001) pickup_write_mnc =   /* Model IO flag. */
(PID.TID 0000.0001)                   F
(PID.TID 0000.0001)     ;
(PID.TID 0000.0001) pickup_read_mnc =   /* Model IO flag. */
(PID.TID 0000.0001)                   F
(PID.TID 0000.0001)     ;
(PID.TID 0000.0001) pickup_write_immed =   /* Model IO flag. */
(PID.TID 0000.0001)                   F
(PID.TID 0000.0001)     ;
(PID.TID 0000.0001) dumpFreq =   /* Model state write out interval ( s ). */
(PID.TID 0000.0001)                 0.000000000000000E+00
(PID.TID 0000.0001)     ;
(PID.TID 0000.0001) dumpInitAndLast= /* write out Initial & Last iter. model state */
(PID.TID 0000.0001)                   T
(PID.TID 0000.0001)     ;
(PID.TID 0000.0001) snapshot_mdsio =   /* Model IO flag. */
(PID.TID 0000.0001)                   F
(PID.TID 0000.0001)     ;
(PID.TID 0000.0001) snapshot_mnc =   /* Model IO flag. */
(PID.TID 0000.0001)                   T
(PID.TID 0000.0001)     ;
(PID.TID 0000.0001) monitorFreq =   /* Monitor output interval ( s ). */
(PID.TID 0000.0001)                 1.000000000000000E+00
(PID.TID 0000.0001)     ;
(PID.TID 0000.0001) monitor_stdio =   /* Model IO flag. */
(PID.TID 0000.0001)                   T
(PID.TID 0000.0001)     ;
(PID.TID 0000.0001) monitor_mnc =   /* Model IO flag. */
(PID.TID 0000.0001)                   F
(PID.TID 0000.0001)     ;
(PID.TID 0000.0001) externForcingPeriod =   /* forcing period (s) */
(PID.TID 0000.0001)                 0.000000000000000E+00
(PID.TID 0000.0001)     ;
(PID.TID 0000.0001) externForcingCycle =   /* period of the cyle (s). */
(PID.TID 0000.0001)                 0.000000000000000E+00
(PID.TID 0000.0001)     ;
(PID.TID 0000.0001) tauThetaClimRelax =   /* relaxation time scale (s) */
(PID.TID 0000.0001)                 0.000000000000000E+00
(PID.TID 0000.0001)     ;
(PID.TID 0000.0001) tauSaltClimRelax =   /* relaxation time scale (s) */
(PID.TID 0000.0001)                 0.000000000000000E+00
(PID.TID 0000.0001)     ;
(PID.TID 0000.0001) latBandClimRelax =   /* max. Lat. where relaxation */
(PID.TID 0000.0001)                 1.800000000000000E+02
(PID.TID 0000.0001)     ;
(PID.TID 0000.0001) //
(PID.TID 0000.0001) // Gridding paramters ( PARM04 in namelist )
(PID.TID 0000.0001) //
(PID.TID 0000.0001) usingCartesianGrid = /* Cartesian coordinates flag ( True/False ) */
(PID.TID 0000.0001)                   F
(PID.TID 0000.0001)     ;
(PID.TID 0000.0001) usingCylindricalGrid = /* Cylindrical coordinates flag ( True/False ) */
(PID.TID 0000.0001)                   F
(PID.TID 0000.0001)     ;
(PID.TID 0000.0001) usingSphericalPolarGrid = /* Spherical coordinates flag ( True/False ) */
(PID.TID 0000.0001)                   F
(PID.TID 0000.0001)     ;
(PID.TID 0000.0001) usingCurvilinearGrid = /* Curvilinear coordinates flag ( True/False ) */
(PID.TID 0000.0001)                   T
(PID.TID 0000.0001)     ;
(PID.TID 0000.0001) Ro_SeaLevel = /* r(1) ( units of r ) */
(PID.TID 0000.0001)                 1.010800000000000E+05
(PID.TID 0000.0001)     ;
(PID.TID 0000.0001) rkSign =   /* index orientation relative to vertical coordinate */
(PID.TID 0000.0001)                -1.000000000000000E+00
(PID.TID 0000.0001)     ;
(PID.TID 0000.0001) gravitySign = /* gravity orientation relative to vertical coordinate */
(PID.TID 0000.0001)                 1.000000000000000E+00
(PID.TID 0000.0001)     ;
(PID.TID 0000.0001) horiVertRatio =   /* Ratio on units : Horiz - Vertical */
(PID.TID 0000.0001)                 9.810000000000001E+00
(PID.TID 0000.0001)     ;
(PID.TID 0000.0001) drC =   /* C spacing ( units of r ) */
(PID.TID 0000.0001)                 2.527000000000000E+03,      /* K =  1 */
(PID.TID 0000.0001)    19 @  5.054000000000000E+03              /* K =  2: 20 */
(PID.TID 0000.0001)     ;
(PID.TID 0000.0001) drF =   /* W spacing ( units of r ) */
(PID.TID 0000.0001)    20 @  5.054000000000000E+03              /* K =  1: 20 */
(PID.TID 0000.0001)     ;
(PID.TID 0000.0001) delX =   /* U spacing ( m - cartesian, degrees - spherical ) */
(PID.TID 0000.0001)   192 @  1.234567000000000E+05              /* I =  1:192 */
(PID.TID 0000.0001)     ;
(PID.TID 0000.0001) delY =   /* V spacing ( m - cartesian, degrees - spherical ) */
(PID.TID 0000.0001)    32 @  1.234567000000000E+05              /* J =  1: 32 */
(PID.TID 0000.0001)     ;
(PID.TID 0000.0001) phiMin =    /* South edge (ignored - cartesian, degrees - spherical ) */
(PID.TID 0000.0001)                 0.000000000000000E+00
(PID.TID 0000.0001)     ;
(PID.TID 0000.0001) thetaMin =    /* West edge ( ignored - cartesian, degrees - spherical ) */
(PID.TID 0000.0001)                 0.000000000000000E+00
(PID.TID 0000.0001)     ;
(PID.TID 0000.0001) rSphere =  /* Radius ( ignored - cartesian, m - spherical ) */
(PID.TID 0000.0001)                 6.371000000000000E+06
(PID.TID 0000.0001)     ;
(PID.TID 0000.0001) deepAtmosphere = /* Deep/Shallow Atmosphere flag (True/False) */
(PID.TID 0000.0001)                   F
(PID.TID 0000.0001)     ;
(PID.TID 0000.0001) xcoord =   /* P-point X coord ( m - cartesian, degrees - spherical ) */
(PID.TID 0000.0001)                -4.439521994760536E+01,      /* I =  1 */
(PID.TID 0000.0001)                -4.295641272275883E+01,      /* I =  2 */
(PID.TID 0000.0001)                -4.122055553388957E+01,      /* I =  3 */
(PID.TID 0000.0001)                -3.923446288487304E+01,      /* I =  4 */
(PID.TID 0000.0001)                -3.702585158682200E+01,      /* I =  5 */
(PID.TID 0000.0001)                -3.461179367094151E+01,      /* I =  6 */
(PID.TID 0000.0001)                -3.200434569041793E+01,      /* I =  7 */
(PID.TID 0000.0001)                -2.921355965632675E+01,      /* I =  8 */
(PID.TID 0000.0001)                -2.624932223028290E+01,      /* I =  9 */
(PID.TID 0000.0001)                -2.312261250426344E+01,      /* I = 10 */
(PID.TID 0000.0001)                -1.984640717127058E+01,      /* I = 11 */
(PID.TID 0000.0001)                -1.643630800555134E+01,      /* I = 12 */
(PID.TID 0000.0001)                -1.291089806302069E+01,      /* I = 13 */
(PID.TID 0000.0001)                -9.291807802719402E+00,      /* I = 14 */
(PID.TID 0000.0001)                -5.603475335822332E+00,      /* I = 15 */
(PID.TID 0000.0001)                -1.872608513033445E+00,      /* I = 16 */
(PID.TID 0000.0001)                 1.872608513033445E+00,      /* I = 17 */
(PID.TID 0000.0001)                 5.603475335822332E+00,      /* I = 18 */
(PID.TID 0000.0001)                 9.291807802719402E+00,      /* I = 19 */
(PID.TID 0000.0001)                 1.291089806302069E+01,      /* I = 20 */
(PID.TID 0000.0001)                 1.643630800555134E+01,      /* I = 21 */
(PID.TID 0000.0001)                 1.984640717127058E+01,      /* I = 22 */
(PID.TID 0000.0001)                 2.312261250426344E+01,      /* I = 23 */
(PID.TID 0000.0001)                 2.624932223028290E+01,      /* I = 24 */
(PID.TID 0000.0001)                 2.921355965632675E+01,      /* I = 25 */
(PID.TID 0000.0001)                 3.200434569041793E+01,      /* I = 26 */
(PID.TID 0000.0001)                 3.461179367094151E+01,      /* I = 27 */
(PID.TID 0000.0001)                 3.702585158682200E+01,      /* I = 28 */
(PID.TID 0000.0001)                 3.923446288487304E+01,      /* I = 29 */
(PID.TID 0000.0001)                 4.122055553388957E+01,      /* I = 30 */
(PID.TID 0000.0001)                 4.295641272275883E+01,      /* I = 31 */
(PID.TID 0000.0001)                 4.439521994760536E+01,      /* I = 32 */
(PID.TID 0000.0001)                 4.560478005239465E+01,      /* I = 33 */
(PID.TID 0000.0001)                 4.704358727724117E+01,      /* I = 34 */
(PID.TID 0000.0001)                 4.877944446611043E+01,      /* I = 35 */
(PID.TID 0000.0001)                 5.076553711512697E+01,      /* I = 36 */
(PID.TID 0000.0001)                 5.297414841317801E+01,      /* I = 37 */
(PID.TID 0000.0001)                 5.538820632905850E+01,      /* I = 38 */
(PID.TID 0000.0001)                 5.799565430958209E+01,      /* I = 39 */
(PID.TID 0000.0001)                 6.078644034367325E+01,      /* I = 40 */
(PID.TID 0000.0001)                 6.375067776971711E+01,      /* I = 41 */
(PID.TID 0000.0001)                 6.687738749573657E+01,      /* I = 42 */
(PID.TID 0000.0001)                 7.015359282872943E+01,      /* I = 43 */
(PID.TID 0000.0001)                 7.356369199444866E+01,      /* I = 44 */
(PID.TID 0000.0001)                 7.708910193697932E+01,      /* I = 45 */
(PID.TID 0000.0001)                 8.070819219728060E+01,      /* I = 46 */
(PID.TID 0000.0001)                 8.439652466417766E+01,      /* I = 47 */
(PID.TID 0000.0001)                 8.812739148696656E+01,      /* I = 48 */
(PID.TID 0000.0001)                 9.187260851303344E+01,      /* I = 49 */
(PID.TID 0000.0001)                 9.560347533582234E+01,      /* I = 50 */
(PID.TID 0000.0001)                 9.929180780271940E+01,      /* I = 51 */
(PID.TID 0000.0001)                 1.029108980630207E+02,      /* I = 52 */
(PID.TID 0000.0001)                 1.064363080055513E+02,      /* I = 53 */
(PID.TID 0000.0001)                 1.098464071712706E+02,      /* I = 54 */
(PID.TID 0000.0001)                 1.131226125042634E+02,      /* I = 55 */
(PID.TID 0000.0001)                 1.162493222302829E+02,      /* I = 56 */
(PID.TID 0000.0001)                 1.192135596563268E+02,      /* I = 57 */
(PID.TID 0000.0001)                 1.220043456904179E+02,      /* I = 58 */
(PID.TID 0000.0001)                 1.246117936709415E+02,      /* I = 59 */
(PID.TID 0000.0001)                 1.270258515868220E+02,      /* I = 60 */
(PID.TID 0000.0001)                 1.292344628848730E+02,      /* I = 61 */
(PID.TID 0000.0001)                 1.312205555338896E+02,      /* I = 62 */
(PID.TID 0000.0001)                 1.329564127227588E+02,      /* I = 63 */
(PID.TID 0000.0001)                 1.343952199476053E+02,      /* I = 64 */
(PID.TID 0000.0001)                 4.500000000000000E+01,      /* I = 65 */
(PID.TID 0000.0001)                 4.620805468796297E+01,      /* I = 66 */
(PID.TID 0000.0001)                 4.781369642513039E+01,      /* I = 67 */
(PID.TID 0000.0001)                 4.971767671143929E+01,      /* I = 68 */
(PID.TID 0000.0001)                 5.187738319787235E+01,      /* I = 69 */
(PID.TID 0000.0001)                 5.427004371478710E+01,      /* I = 70 */
(PID.TID 0000.0001)                 5.688128325334060E+01,      /* I = 71 */
(PID.TID 0000.0001)                 5.970018167786760E+01,      /* I = 72 */
(PID.TID 0000.0001)                 6.271654991792347E+01,      /* I = 73 */
(PID.TID 0000.0001)                 6.591914604853015E+01,      /* I = 74 */
(PID.TID 0000.0001)                 6.929439270484149E+01,      /* I = 75 */
(PID.TID 0000.0001)                 7.282545807616151E+01,      /* I = 76 */
(PID.TID 0000.0001)                 7.649168830618933E+01,      /* I = 77 */
(PID.TID 0000.0001)                 8.026842803787176E+01,      /* I = 78 */
(PID.TID 0000.0001)                 8.412726743124185E+01,      /* I = 79 */
(PID.TID 0000.0001)                 8.803672008547504E+01,      /* I = 80 */
(PID.TID 0000.0001)                 9.196327991452496E+01,      /* I = 81 */
(PID.TID 0000.0001)                 9.587273256875815E+01,      /* I = 82 */
(PID.TID 0000.0001)                 9.973157196212824E+01,      /* I = 83 */
(PID.TID 0000.0001)                 1.035083116938107E+02,      /* I = 84 */
(PID.TID 0000.0001)                 1.071745419238385E+02,      /* I = 85 */
(PID.TID 0000.0001)                 1.107056072951585E+02,      /* I = 86 */
(PID.TID 0000.0001)                 1.140808539514699E+02,      /* I = 87 */
(PID.TID 0000.0001)                 1.172834500820765E+02,      /* I = 88 */
(PID.TID 0000.0001)                 1.202998183221324E+02,      /* I = 89 */
(PID.TID 0000.0001)                 1.231187167466594E+02,      /* I = 90 */
(PID.TID 0000.0001)                 1.257299562852129E+02,      /* I = 91 */
(PID.TID 0000.0001)                 1.281226168021277E+02,      /* I = 92 */
(PID.TID 0000.0001)                 1.302823232885607E+02,      /* I = 93 */
(PID.TID 0000.0001)                 1.321863035748696E+02,      /* I = 94 */
(PID.TID 0000.0001)                 1.337919453120370E+02,      /* I = 95 */
(PID.TID 0000.0001)                 1.350000000000000E+02,      /* I = 96 */
(PID.TID 0000.0001)                 1.356047800523947E+02,      /* I = 97 */
(PID.TID 0000.0001)                 1.358367907661329E+02,      /* I = 98 */
(PID.TID 0000.0001)                 1.359720382181193E+02,      /* I = 99 */
(PID.TID 0000.0001)                 1.360654656901789E+02,      /* I =100 */
(PID.TID 0000.0001)                 1.361344533147043E+02,      /* I =101 */
(PID.TID 0000.0001)                 1.361871219420981E+02,      /* I =102 */
(PID.TID 0000.0001)                 1.362280794509603E+02,      /* I =103 */
(PID.TID 0000.0001)                 1.362602511071934E+02,      /* I =104 */
(PID.TID 0000.0001)                 1.362856280326734E+02,      /* I =105 */
(PID.TID 0000.0001)                 1.363056266270901E+02,      /* I =106 */
(PID.TID 0000.0001)                 1.363212817739446E+02,      /* I =107 */
(PID.TID 0000.0001)                 1.363333595910255E+02,      /* I =108 */
(PID.TID 0000.0001)                 1.363424272425760E+02,      /* I =109 */
(PID.TID 0000.0001)                 1.363488978790713E+02,      /* I =110 */
(PID.TID 0000.0001)                 1.363530600590580E+02,      /* I =111 */
(PID.TID 0000.0001)     2 @  1.363550967500717E+02,             /* I =112:113 */
(PID.TID 0000.0001)                 1.363530600590580E+02,      /* I =114 */
(PID.TID 0000.0001)                 1.363488978790713E+02,      /* I =115 */
(PID.TID 0000.0001)                 1.363424272425760E+02,      /* I =116 */
(PID.TID 0000.0001)                 1.363333595910255E+02,      /* I =117 */
(PID.TID 0000.0001)                 1.363212817739446E+02,      /* I =118 */
(PID.TID 0000.0001)                 1.363056266270901E+02,      /* I =119 */
(PID.TID 0000.0001)                 1.362856280326734E+02,      /* I =120 */
(PID.TID 0000.0001)                 1.362602511071934E+02,      /* I =121 */
(PID.TID 0000.0001)                 1.362280794509603E+02,      /* I =122 */
(PID.TID 0000.0001)                 1.361871219420981E+02,      /* I =123 */
(PID.TID 0000.0001)                 1.361344533147043E+02,      /* I =124 */
(PID.TID 0000.0001)                 1.360654656901789E+02,      /* I =125 */
(PID.TID 0000.0001)                 1.359720382181193E+02,      /* I =126 */
(PID.TID 0000.0001)                 1.358367907661329E+02,      /* I =127 */
(PID.TID 0000.0001)                 1.356047800523947E+02,      /* I =128 */
(PID.TID 0000.0001)                -1.343952199476053E+02,      /* I =129 */
(PID.TID 0000.0001)                -1.341632092338671E+02,      /* I =130 */
(PID.TID 0000.0001)                -1.340279617818807E+02,      /* I =131 */
(PID.TID 0000.0001)                -1.339345343098211E+02,      /* I =132 */
(PID.TID 0000.0001)                -1.338655466852958E+02,      /* I =133 */
(PID.TID 0000.0001)                -1.338128780579019E+02,      /* I =134 */
(PID.TID 0000.0001)                -1.337719205490397E+02,      /* I =135 */
(PID.TID 0000.0001)                -1.337397488928066E+02,      /* I =136 */
(PID.TID 0000.0001)                -1.337143719673266E+02,      /* I =137 */
(PID.TID 0000.0001)                -1.336943733729099E+02,      /* I =138 */
(PID.TID 0000.0001)                -1.336787182260554E+02,      /* I =139 */
(PID.TID 0000.0001)                -1.336666404089745E+02,      /* I =140 */
(PID.TID 0000.0001)                -1.336575727574240E+02,      /* I =141 */
(PID.TID 0000.0001)                -1.336511021209287E+02,      /* I =142 */
(PID.TID 0000.0001)                -1.336469399409420E+02,      /* I =143 */
(PID.TID 0000.0001)     2 @ -1.336449032499283E+02,             /* I =144:145 */
(PID.TID 0000.0001)                -1.336469399409420E+02,      /* I =146 */
(PID.TID 0000.0001)                -1.336511021209287E+02,      /* I =147 */
(PID.TID 0000.0001)                -1.336575727574240E+02,      /* I =148 */
(PID.TID 0000.0001)                -1.336666404089745E+02,      /* I =149 */
(PID.TID 0000.0001)                -1.336787182260554E+02,      /* I =150 */
(PID.TID 0000.0001)                -1.336943733729099E+02,      /* I =151 */
(PID.TID 0000.0001)                -1.337143719673266E+02,      /* I =152 */
(PID.TID 0000.0001)                -1.337397488928066E+02,      /* I =153 */
(PID.TID 0000.0001)                -1.337719205490397E+02,      /* I =154 */
(PID.TID 0000.0001)                -1.338128780579019E+02,      /* I =155 */
(PID.TID 0000.0001)                -1.338655466852958E+02,      /* I =156 */
(PID.TID 0000.0001)                -1.339345343098211E+02,      /* I =157 */
(PID.TID 0000.0001)                -1.340279617818807E+02,      /* I =158 */
(PID.TID 0000.0001)                -1.341632092338671E+02,      /* I =159 */
(PID.TID 0000.0001)                -1.343952199476053E+02,      /* I =160 */
(PID.TID 0000.0001)                -1.350000000000000E+02,      /* I =161 */
(PID.TID 0000.0001)                -1.362080546879630E+02,      /* I =162 */
(PID.TID 0000.0001)                -1.378136964251304E+02,      /* I =163 */
(PID.TID 0000.0001)                -1.397176767114393E+02,      /* I =164 */
(PID.TID 0000.0001)                -1.418773831978724E+02,      /* I =165 */
(PID.TID 0000.0001)                -1.442700437147871E+02,      /* I =166 */
(PID.TID 0000.0001)                -1.468812832533406E+02,      /* I =167 */
(PID.TID 0000.0001)                -1.497001816778676E+02,      /* I =168 */
(PID.TID 0000.0001)                -1.527165499179235E+02,      /* I =169 */
(PID.TID 0000.0001)                -1.559191460485302E+02,      /* I =170 */
(PID.TID 0000.0001)                -1.592943927048415E+02,      /* I =171 */
(PID.TID 0000.0001)                -1.628254580761615E+02,      /* I =172 */
(PID.TID 0000.0001)                -1.664916883061893E+02,      /* I =173 */
(PID.TID 0000.0001)                -1.702684280378718E+02,      /* I =174 */
(PID.TID 0000.0001)                -1.741272674312418E+02,      /* I =175 */
(PID.TID 0000.0001)                -1.780367200854751E+02,      /* I =176 */
(PID.TID 0000.0001)                 1.780367200854751E+02,      /* I =177 */
(PID.TID 0000.0001)                 1.741272674312418E+02,      /* I =178 */
(PID.TID 0000.0001)                 1.702684280378718E+02,      /* I =179 */
(PID.TID 0000.0001)                 1.664916883061893E+02,      /* I =180 */
(PID.TID 0000.0001)                 1.628254580761615E+02,      /* I =181 */
(PID.TID 0000.0001)                 1.592943927048415E+02,      /* I =182 */
(PID.TID 0000.0001)                 1.559191460485302E+02,      /* I =183 */
(PID.TID 0000.0001)                 1.527165499179235E+02,      /* I =184 */
(PID.TID 0000.0001)                 1.497001816778676E+02,      /* I =185 */
(PID.TID 0000.0001)                 1.468812832533406E+02,      /* I =186 */
(PID.TID 0000.0001)                 1.442700437147871E+02,      /* I =187 */
(PID.TID 0000.0001)                 1.418773831978724E+02,      /* I =188 */
(PID.TID 0000.0001)                 1.397176767114393E+02,      /* I =189 */
(PID.TID 0000.0001)                 1.378136964251304E+02,      /* I =190 */
(PID.TID 0000.0001)                 1.362080546879630E+02,      /* I =191 */
(PID.TID 0000.0001)                 1.350000000000000E+02       /* I =192 */
(PID.TID 0000.0001)     ;
(PID.TID 0000.0001) ycoord =   /* P-point Y coord ( m - cartesian, degrees - spherical ) */
(PID.TID 0000.0001)                -3.497677942598243E+01,      /* J =  1 */
(PID.TID 0000.0001)                -3.374005967394886E+01,      /* J =  2 */
(PID.TID 0000.0001)                -3.220655175667454E+01,      /* J =  3 */
(PID.TID 0000.0001)                -3.045756348838641E+01,      /* J =  4 */
(PID.TID 0000.0001)                -2.853728129852918E+01,      /* J =  5 */
(PID.TID 0000.0001)                -2.647426640173173E+01,      /* J =  6 */
(PID.TID 0000.0001)                -2.428936657094636E+01,      /* J =  7 */
(PID.TID 0000.0001)                -2.199915808312262E+01,      /* J =  8 */
(PID.TID 0000.0001)                -1.961768597440146E+01,      /* J =  9 */
(PID.TID 0000.0001)                -1.715743888281371E+01,      /* J = 10 */
(PID.TID 0000.0001)                -1.462993396899330E+01,      /* J = 11 */
(PID.TID 0000.0001)                -1.204608340464756E+01,      /* J = 12 */
(PID.TID 0000.0001)                -9.416429130284818E+00,      /* J = 13 */
(PID.TID 0000.0001)                -6.751293662992216E+00,      /* J = 14 */
(PID.TID 0000.0001)                -4.060875511835959E+00,      /* J = 15 */
(PID.TID 0000.0001)                -1.355307764409121E+00,      /* J = 16 */
(PID.TID 0000.0001)                 1.355307764409121E+00,      /* J = 17 */
(PID.TID 0000.0001)                 4.060875511835959E+00,      /* J = 18 */
(PID.TID 0000.0001)                 6.751293662992216E+00,      /* J = 19 */
(PID.TID 0000.0001)                 9.416429130284818E+00,      /* J = 20 */
(PID.TID 0000.0001)                 1.204608340464756E+01,      /* J = 21 */
(PID.TID 0000.0001)                 1.462993396899330E+01,      /* J = 22 */
(PID.TID 0000.0001)                 1.715743888281371E+01,      /* J = 23 */
(PID.TID 0000.0001)                 1.961768597440146E+01,      /* J = 24 */
(PID.TID 0000.0001)                 2.199915808312262E+01,      /* J = 25 */
(PID.TID 0000.0001)                 2.428936657094636E+01,      /* J = 26 */
(PID.TID 0000.0001)                 2.647426640173173E+01,      /* J = 27 */
(PID.TID 0000.0001)                 2.853728129852918E+01,      /* J = 28 */
(PID.TID 0000.0001)                 3.045756348838641E+01,      /* J = 29 */
(PID.TID 0000.0001)                 3.220655175667454E+01,      /* J = 30 */
(PID.TID 0000.0001)                 3.374005967394886E+01,      /* J = 31 */
(PID.TID 0000.0001)                 3.497677942598243E+01       /* J = 32 */
(PID.TID 0000.0001)     ;
(PID.TID 0000.0001) rcoord =   /* P-point R coordinate (  units of r ) */
(PID.TID 0000.0001)                 9.855300000000000E+04,      /* K =  1 */
(PID.TID 0000.0001)                 9.349900000000000E+04,      /* K =  2 */
(PID.TID 0000.0001)                 8.844500000000000E+04,      /* K =  3 */
(PID.TID 0000.0001)                 8.339100000000000E+04,      /* K =  4 */
(PID.TID 0000.0001)                 7.833700000000000E+04,      /* K =  5 */
(PID.TID 0000.0001)                 7.328300000000000E+04,      /* K =  6 */
(PID.TID 0000.0001)                 6.822900000000000E+04,      /* K =  7 */
(PID.TID 0000.0001)                 6.317500000000000E+04,      /* K =  8 */
(PID.TID 0000.0001)                 5.812100000000000E+04,      /* K =  9 */
(PID.TID 0000.0001)                 5.306700000000000E+04,      /* K = 10 */
(PID.TID 0000.0001)                 4.801300000000000E+04,      /* K = 11 */
(PID.TID 0000.0001)                 4.295900000000000E+04,      /* K = 12 */
(PID.TID 0000.0001)                 3.790500000000000E+04,      /* K = 13 */
(PID.TID 0000.0001)                 3.285100000000000E+04,      /* K = 14 */
(PID.TID 0000.0001)                 2.779700000000000E+04,      /* K = 15 */
(PID.TID 0000.0001)                 2.274300000000000E+04,      /* K = 16 */
(PID.TID 0000.0001)                 1.768900000000000E+04,      /* K = 17 */
(PID.TID 0000.0001)                 1.263500000000000E+04,      /* K = 18 */
(PID.TID 0000.0001)                 7.581000000000000E+03,      /* K = 19 */
(PID.TID 0000.0001)                 2.527000000000000E+03       /* K = 20 */
(PID.TID 0000.0001)     ;
(PID.TID 0000.0001) rF =   /* W-Interf. R coordinate (  units of r ) */
(PID.TID 0000.0001)                 1.010800000000000E+05,      /* K =  1 */
(PID.TID 0000.0001)                 9.602600000000000E+04,      /* K =  2 */
(PID.TID 0000.0001)                 9.097200000000000E+04,      /* K =  3 */
(PID.TID 0000.0001)                 8.591800000000000E+04,      /* K =  4 */
(PID.TID 0000.0001)                 8.086400000000000E+04,      /* K =  5 */
(PID.TID 0000.0001)                 7.581000000000000E+04,      /* K =  6 */
(PID.TID 0000.0001)                 7.075600000000000E+04,      /* K =  7 */
(PID.TID 0000.0001)                 6.570200000000000E+04,      /* K =  8 */
(PID.TID 0000.0001)                 6.064800000000000E+04,      /* K =  9 */
(PID.TID 0000.0001)                 5.559400000000000E+04,      /* K = 10 */
(PID.TID 0000.0001)                 5.054000000000000E+04,      /* K = 11 */
(PID.TID 0000.0001)                 4.548600000000000E+04,      /* K = 12 */
(PID.TID 0000.0001)                 4.043200000000000E+04,      /* K = 13 */
(PID.TID 0000.0001)                 3.537800000000000E+04,      /* K = 14 */
(PID.TID 0000.0001)                 3.032400000000000E+04,      /* K = 15 */
(PID.TID 0000.0001)                 2.527000000000000E+04,      /* K = 16 */
(PID.TID 0000.0001)                 2.021600000000000E+04,      /* K = 17 */
(PID.TID 0000.0001)                 1.516200000000000E+04,      /* K = 18 */
(PID.TID 0000.0001)                 1.010800000000000E+04,      /* K = 19 */
(PID.TID 0000.0001)                 5.054000000000000E+03,      /* K = 20 */
(PID.TID 0000.0001)                 0.000000000000000E+00       /* K = 21 */
(PID.TID 0000.0001)     ;
(PID.TID 0000.0001) deepFacC = /* deep-model grid factor @ cell-Center (-) */
(PID.TID 0000.0001)    20 @  1.000000000000000E+00              /* K =  1: 20 */
(PID.TID 0000.0001)     ;
(PID.TID 0000.0001) deepFacF = /* deep-model grid factor @ W-Interface (-) */
(PID.TID 0000.0001)    21 @  1.000000000000000E+00              /* K =  1: 21 */
(PID.TID 0000.0001)     ;
(PID.TID 0000.0001) dBdrRef = /* Vertical gradient of reference boyancy [(m/s/r)^2)] */
(PID.TID 0000.0001)                 0.000000000000000E+00,      /* K =  1 */
(PID.TID 0000.0001)                 1.168695101832678E-06,      /* K =  2 */
(PID.TID 0000.0001)                 1.214731933662585E-06,      /* K =  3 */
(PID.TID 0000.0001)                 1.265376800132251E-06,      /* K =  4 */
(PID.TID 0000.0001)                 1.982108400861510E-06,      /* K =  5 */
(PID.TID 0000.0001)                 2.075677388535635E-06,      /* K =  6 */
(PID.TID 0000.0001)                 2.180603685167407E-06,      /* K =  7 */
(PID.TID 0000.0001)                 2.299237756774469E-06,      /* K =  8 */
(PID.TID 0000.0001)                 2.434651197433198E-06,      /* K =  9 */
(PID.TID 0000.0001)                 2.590943086329595E-06,      /* K = 10 */
(PID.TID 0000.0001)                 2.773719906973164E-06,      /* K = 11 */
(PID.TID 0000.0001)                 2.990877444713175E-06,      /* K = 12 */
(PID.TID 0000.0001)                 3.796258619174569E-06,      /* K = 13 */
(PID.TID 0000.0001)                 4.177197220701854E-06,      /* K = 14 */
(PID.TID 0000.0001)                 5.998085821035755E-06,      /* K = 15 */
(PID.TID 0000.0001)                 6.836650610103146E-06,      /* K = 16 */
(PID.TID 0000.0001)                 1.962224720100582E-05,      /* K = 17 */
(PID.TID 0000.0001)                 2.855207349352877E-05,      /* K = 18 */
(PID.TID 0000.0001)                 1.182300266773325E-04,      /* K = 19 */
(PID.TID 0000.0001)                 2.229643522577340E-04       /* K = 20 */
(PID.TID 0000.0001)     ;
(PID.TID 0000.0001) dxF =  /* dxF(:,1,:,1) ( units: m ) */
(PID.TID 0000.0001)                 1.202082051331828E+05,      /* I =  1 */
(PID.TID 0000.0001)                 1.563594089971120E+05,      /* I =  2 */
(PID.TID 0000.0001)                 1.835530058121492E+05,      /* I =  3 */
(PID.TID 0000.0001)                 2.045883481718707E+05,      /* I =  4 */
(PID.TID 0000.0001)                 2.218350349844185E+05,      /* I =  5 */
(PID.TID 0000.0001)                 2.364352994647058E+05,      /* I =  6 */
(PID.TID 0000.0001)                 2.490022710862746E+05,      /* I =  7 */
(PID.TID 0000.0001)                 2.598919724358304E+05,      /* I =  8 */
(PID.TID 0000.0001)                 2.693210245495156E+05,      /* I =  9 */
(PID.TID 0000.0001)                 2.774243179696503E+05,      /* I = 10 */
(PID.TID 0000.0001)                 2.842862532064524E+05,      /* I = 11 */
(PID.TID 0000.0001)                 2.899590699694043E+05,      /* I = 12 */
(PID.TID 0000.0001)                 2.944742915095688E+05,      /* I = 13 */
(PID.TID 0000.0001)                 2.978501920522794E+05,      /* I = 14 */
(PID.TID 0000.0001)                 3.000967749619962E+05,      /* I = 15 */
(PID.TID 0000.0001)     2 @  3.012190981969055E+05,             /* I = 16: 17 */
(PID.TID 0000.0001)                 3.000967749619962E+05,      /* I = 18 */
(PID.TID 0000.0001)                 2.978501920522794E+05,      /* I = 19 */
(PID.TID 0000.0001)                 2.944742915095688E+05,      /* I = 20 */
(PID.TID 0000.0001)                 2.899590699694043E+05,      /* I = 21 */
(PID.TID 0000.0001)                 2.842862532064524E+05,      /* I = 22 */
(PID.TID 0000.0001)                 2.774243179696503E+05,      /* I = 23 */
(PID.TID 0000.0001)                 2.693210245495156E+05,      /* I = 24 */
(PID.TID 0000.0001)                 2.598919724358304E+05,      /* I = 25 */
(PID.TID 0000.0001)                 2.490022710862746E+05,      /* I = 26 */
(PID.TID 0000.0001)                 2.364352994647058E+05,      /* I = 27 */
(PID.TID 0000.0001)                 2.218350349844185E+05,      /* I = 28 */
(PID.TID 0000.0001)                 2.045883481718707E+05,      /* I = 29 */
(PID.TID 0000.0001)                 1.835530058121492E+05,      /* I = 30 */
(PID.TID 0000.0001)                 1.563594089971120E+05,      /* I = 31 */
(PID.TID 0000.0001)     2 @  1.202082051331828E+05,             /* I = 32: 33 */
(PID.TID 0000.0001)                 1.563594089971120E+05,      /* I = 34 */
(PID.TID 0000.0001)                 1.835530058121492E+05,      /* I = 35 */
(PID.TID 0000.0001)                 2.045883481718707E+05,      /* I = 36 */
(PID.TID 0000.0001)                 2.218350349844185E+05,      /* I = 37 */
(PID.TID 0000.0001)                 2.364352994647058E+05,      /* I = 38 */
(PID.TID 0000.0001)                 2.490022710862746E+05,      /* I = 39 */
(PID.TID 0000.0001)                 2.598919724358304E+05,      /* I = 40 */
(PID.TID 0000.0001)                 2.693210245495156E+05,      /* I = 41 */
(PID.TID 0000.0001)                 2.774243179696503E+05,      /* I = 42 */
(PID.TID 0000.0001)                 2.842862532064524E+05,      /* I = 43 */
(PID.TID 0000.0001)                 2.899590699694043E+05,      /* I = 44 */
(PID.TID 0000.0001)                 2.944742915095688E+05,      /* I = 45 */
(PID.TID 0000.0001)                 2.978501920522794E+05,      /* I = 46 */
(PID.TID 0000.0001)                 3.000967749619962E+05,      /* I = 47 */
(PID.TID 0000.0001)     2 @  3.012190981969055E+05,             /* I = 48: 49 */
(PID.TID 0000.0001)                 3.000967749619962E+05,      /* I = 50 */
(PID.TID 0000.0001)                 2.978501920522794E+05,      /* I = 51 */
(PID.TID 0000.0001)                 2.944742915095688E+05,      /* I = 52 */
(PID.TID 0000.0001)                 2.899590699694043E+05,      /* I = 53 */
(PID.TID 0000.0001)                 2.842862532064524E+05,      /* I = 54 */
(PID.TID 0000.0001)                 2.774243179696503E+05,      /* I = 55 */
(PID.TID 0000.0001)                 2.693210245495156E+05,      /* I = 56 */
(PID.TID 0000.0001)                 2.598919724358304E+05,      /* I = 57 */
(PID.TID 0000.0001)                 2.490022710862746E+05,      /* I = 58 */
(PID.TID 0000.0001)                 2.364352994647058E+05,      /* I = 59 */
(PID.TID 0000.0001)                 2.218350349844185E+05,      /* I = 60 */
(PID.TID 0000.0001)                 2.045883481718707E+05,      /* I = 61 */
(PID.TID 0000.0001)                 1.835530058121492E+05,      /* I = 62 */
(PID.TID 0000.0001)                 1.563594089971120E+05,      /* I = 63 */
(PID.TID 0000.0001)     2 @  1.202082051331828E+05,             /* I = 64: 65 */
(PID.TID 0000.0001)                 1.563594089971120E+05,      /* I = 66 */
(PID.TID 0000.0001)                 1.835530058121492E+05,      /* I = 67 */
(PID.TID 0000.0001)                 2.045883481718707E+05,      /* I = 68 */
(PID.TID 0000.0001)                 2.218350349844185E+05,      /* I = 69 */
(PID.TID 0000.0001)                 2.364352994647058E+05,      /* I = 70 */
(PID.TID 0000.0001)                 2.490022710862746E+05,      /* I = 71 */
(PID.TID 0000.0001)                 2.598919724358304E+05,      /* I = 72 */
(PID.TID 0000.0001)                 2.693210245495156E+05,      /* I = 73 */
(PID.TID 0000.0001)                 2.774243179696503E+05,      /* I = 74 */
(PID.TID 0000.0001)                 2.842862532064524E+05,      /* I = 75 */
(PID.TID 0000.0001)                 2.899590699694043E+05,      /* I = 76 */
(PID.TID 0000.0001)                 2.944742915095688E+05,      /* I = 77 */
(PID.TID 0000.0001)                 2.978501920522794E+05,      /* I = 78 */
(PID.TID 0000.0001)                 3.000967749619962E+05,      /* I = 79 */
(PID.TID 0000.0001)     2 @  3.012190981969055E+05,             /* I = 80: 81 */
(PID.TID 0000.0001)                 3.000967749619962E+05,      /* I = 82 */
(PID.TID 0000.0001)                 2.978501920522794E+05,      /* I = 83 */
(PID.TID 0000.0001)                 2.944742915095688E+05,      /* I = 84 */
(PID.TID 0000.0001)                 2.899590699694043E+05,      /* I = 85 */
(PID.TID 0000.0001)                 2.842862532064524E+05,      /* I = 86 */
(PID.TID 0000.0001)                 2.774243179696503E+05,      /* I = 87 */
(PID.TID 0000.0001)                 2.693210245495156E+05,      /* I = 88 */
(PID.TID 0000.0001)                 2.598919724358304E+05,      /* I = 89 */
(PID.TID 0000.0001)                 2.490022710862746E+05,      /* I = 90 */
(PID.TID 0000.0001)                 2.364352994647058E+05,      /* I = 91 */
(PID.TID 0000.0001)                 2.218350349844185E+05,      /* I = 92 */
(PID.TID 0000.0001)                 2.045883481718707E+05,      /* I = 93 */
(PID.TID 0000.0001)                 1.835530058121492E+05,      /* I = 94 */
(PID.TID 0000.0001)                 1.563594089971120E+05,      /* I = 95 */
(PID.TID 0000.0001)     2 @  1.202082051331828E+05,             /* I = 96: 97 */
(PID.TID 0000.0001)                 1.563594089971120E+05,      /* I = 98 */
(PID.TID 0000.0001)                 1.835530058121492E+05,      /* I = 99 */
(PID.TID 0000.0001)                 2.045883481718707E+05,      /* I =100 */
(PID.TID 0000.0001)                 2.218350349844185E+05,      /* I =101 */
(PID.TID 0000.0001)                 2.364352994647058E+05,      /* I =102 */
(PID.TID 0000.0001)                 2.490022710862746E+05,      /* I =103 */
(PID.TID 0000.0001)                 2.598919724358304E+05,      /* I =104 */
(PID.TID 0000.0001)                 2.693210245495156E+05,      /* I =105 */
(PID.TID 0000.0001)                 2.774243179696503E+05,      /* I =106 */
(PID.TID 0000.0001)                 2.842862532064524E+05,      /* I =107 */
(PID.TID 0000.0001)                 2.899590699694043E+05,      /* I =108 */
(PID.TID 0000.0001)                 2.944742915095688E+05,      /* I =109 */
(PID.TID 0000.0001)                 2.978501920522794E+05,      /* I =110 */
(PID.TID 0000.0001)                 3.000967749619962E+05,      /* I =111 */
(PID.TID 0000.0001)     2 @  3.012190981969055E+05,             /* I =112:113 */
(PID.TID 0000.0001)                 3.000967749619962E+05,      /* I =114 */
(PID.TID 0000.0001)                 2.978501920522794E+05,      /* I =115 */
(PID.TID 0000.0001)                 2.944742915095688E+05,      /* I =116 */
(PID.TID 0000.0001)                 2.899590699694043E+05,      /* I =117 */
(PID.TID 0000.0001)                 2.842862532064524E+05,      /* I =118 */
(PID.TID 0000.0001)                 2.774243179696503E+05,      /* I =119 */
(PID.TID 0000.0001)                 2.693210245495156E+05,      /* I =120 */
(PID.TID 0000.0001)                 2.598919724358304E+05,      /* I =121 */
(PID.TID 0000.0001)                 2.490022710862746E+05,      /* I =122 */
(PID.TID 0000.0001)                 2.364352994647058E+05,      /* I =123 */
(PID.TID 0000.0001)                 2.218350349844185E+05,      /* I =124 */
(PID.TID 0000.0001)                 2.045883481718707E+05,      /* I =125 */
(PID.TID 0000.0001)                 1.835530058121492E+05,      /* I =126 */
(PID.TID 0000.0001)                 1.563594089971120E+05,      /* I =127 */
(PID.TID 0000.0001)     2 @  1.202082051331828E+05,             /* I =128:129 */
(PID.TID 0000.0001)                 1.563594089971120E+05,      /* I =130 */
(PID.TID 0000.0001)                 1.835530058121492E+05,      /* I =131 */
(PID.TID 0000.0001)                 2.045883481718707E+05,      /* I =132 */
(PID.TID 0000.0001)                 2.218350349844185E+05,      /* I =133 */
(PID.TID 0000.0001)                 2.364352994647058E+05,      /* I =134 */
(PID.TID 0000.0001)                 2.490022710862746E+05,      /* I =135 */
(PID.TID 0000.0001)                 2.598919724358304E+05,      /* I =136 */
(PID.TID 0000.0001)                 2.693210245495156E+05,      /* I =137 */
(PID.TID 0000.0001)                 2.774243179696503E+05,      /* I =138 */
(PID.TID 0000.0001)                 2.842862532064524E+05,      /* I =139 */
(PID.TID 0000.0001)                 2.899590699694043E+05,      /* I =140 */
(PID.TID 0000.0001)                 2.944742915095688E+05,      /* I =141 */
(PID.TID 0000.0001)                 2.978501920522794E+05,      /* I =142 */
(PID.TID 0000.0001)                 3.000967749619962E+05,      /* I =143 */
(PID.TID 0000.0001)     2 @  3.012190981969055E+05,             /* I =144:145 */
(PID.TID 0000.0001)                 3.000967749619962E+05,      /* I =146 */
(PID.TID 0000.0001)                 2.978501920522794E+05,      /* I =147 */
(PID.TID 0000.0001)                 2.944742915095688E+05,      /* I =148 */
(PID.TID 0000.0001)                 2.899590699694043E+05,      /* I =149 */
(PID.TID 0000.0001)                 2.842862532064524E+05,      /* I =150 */
(PID.TID 0000.0001)                 2.774243179696503E+05,      /* I =151 */
(PID.TID 0000.0001)                 2.693210245495156E+05,      /* I =152 */
(PID.TID 0000.0001)                 2.598919724358304E+05,      /* I =153 */
(PID.TID 0000.0001)                 2.490022710862746E+05,      /* I =154 */
(PID.TID 0000.0001)                 2.364352994647058E+05,      /* I =155 */
(PID.TID 0000.0001)                 2.218350349844185E+05,      /* I =156 */
(PID.TID 0000.0001)                 2.045883481718707E+05,      /* I =157 */
(PID.TID 0000.0001)                 1.835530058121492E+05,      /* I =158 */
(PID.TID 0000.0001)                 1.563594089971120E+05,      /* I =159 */
(PID.TID 0000.0001)     2 @  1.202082051331828E+05,             /* I =160:161 */
(PID.TID 0000.0001)                 1.563594089971120E+05,      /* I =162 */
(PID.TID 0000.0001)                 1.835530058121492E+05,      /* I =163 */
(PID.TID 0000.0001)                 2.045883481718707E+05,      /* I =164 */
(PID.TID 0000.0001)                 2.218350349844185E+05,      /* I =165 */
(PID.TID 0000.0001)                 2.364352994647058E+05,      /* I =166 */
(PID.TID 0000.0001)                 2.490022710862746E+05,      /* I =167 */
(PID.TID 0000.0001)                 2.598919724358304E+05,      /* I =168 */
(PID.TID 0000.0001)                 2.693210245495156E+05,      /* I =169 */
(PID.TID 0000.0001)                 2.774243179696503E+05,      /* I =170 */
(PID.TID 0000.0001)                 2.842862532064524E+05,      /* I =171 */
(PID.TID 0000.0001)                 2.899590699694043E+05,      /* I =172 */
(PID.TID 0000.0001)                 2.944742915095688E+05,      /* I =173 */
(PID.TID 0000.0001)                 2.978501920522794E+05,      /* I =174 */
(PID.TID 0000.0001)                 3.000967749619962E+05,      /* I =175 */
(PID.TID 0000.0001)     2 @  3.012190981969055E+05,             /* I =176:177 */
(PID.TID 0000.0001)                 3.000967749619962E+05,      /* I =178 */
(PID.TID 0000.0001)                 2.978501920522794E+05,      /* I =179 */
(PID.TID 0000.0001)                 2.944742915095688E+05,      /* I =180 */
(PID.TID 0000.0001)                 2.899590699694043E+05,      /* I =181 */
(PID.TID 0000.0001)                 2.842862532064524E+05,      /* I =182 */
(PID.TID 0000.0001)                 2.774243179696503E+05,      /* I =183 */
(PID.TID 0000.0001)                 2.693210245495156E+05,      /* I =184 */
(PID.TID 0000.0001)                 2.598919724358304E+05,      /* I =185 */
(PID.TID 0000.0001)                 2.490022710862746E+05,      /* I =186 */
(PID.TID 0000.0001)                 2.364352994647058E+05,      /* I =187 */
(PID.TID 0000.0001)                 2.218350349844185E+05,      /* I =188 */
(PID.TID 0000.0001)                 2.045883481718707E+05,      /* I =189 */
(PID.TID 0000.0001)                 1.835530058121492E+05,      /* I =190 */
(PID.TID 0000.0001)                 1.563594089971120E+05,      /* I =191 */
(PID.TID 0000.0001)                 1.202082051331828E+05       /* I =192 */
(PID.TID 0000.0001)     ;
(PID.TID 0000.0001) dxF =  /* dxF(1,:,1,:) ( units: m ) */
(PID.TID 0000.0001)                 1.202082051331828E+05,      /* J =  1 */
(PID.TID 0000.0001)                 1.572908084538706E+05,      /* J =  2 */
(PID.TID 0000.0001)                 1.840412227747703E+05,      /* J =  3 */
(PID.TID 0000.0001)                 2.048868197919577E+05,      /* J =  4 */
(PID.TID 0000.0001)                 2.220405216043041E+05,      /* J =  5 */
(PID.TID 0000.0001)                 2.365892017348392E+05,      /* J =  6 */
(PID.TID 0000.0001)                 2.491250781852558E+05,      /* J =  7 */
(PID.TID 0000.0001)                 2.599949918261881E+05,      /* J =  8 */
(PID.TID 0000.0001)                 2.694110134598581E+05,      /* J =  9 */
(PID.TID 0000.0001)                 2.775055554645015E+05,      /* J = 10 */
(PID.TID 0000.0001)                 2.843615645344775E+05,      /* J = 11 */
(PID.TID 0000.0001)                 2.900303768613599E+05,      /* J = 12 */
(PID.TID 0000.0001)                 2.945429307892709E+05,      /* J = 13 */
(PID.TID 0000.0001)                 2.979171143158405E+05,      /* J = 14 */
(PID.TID 0000.0001)                 3.001626787528886E+05,      /* J = 15 */
(PID.TID 0000.0001)     2 @  3.012844832048790E+05,             /* J = 16: 17 */
(PID.TID 0000.0001)                 3.001626787528886E+05,      /* J = 18 */
(PID.TID 0000.0001)                 2.979171143158405E+05,      /* J = 19 */
(PID.TID 0000.0001)                 2.945429307892709E+05,      /* J = 20 */
(PID.TID 0000.0001)                 2.900303768613599E+05,      /* J = 21 */
(PID.TID 0000.0001)                 2.843615645344775E+05,      /* J = 22 */
(PID.TID 0000.0001)                 2.775055554645015E+05,      /* J = 23 */
(PID.TID 0000.0001)                 2.694110134598581E+05,      /* J = 24 */
(PID.TID 0000.0001)                 2.599949918261881E+05,      /* J = 25 */
(PID.TID 0000.0001)                 2.491250781852558E+05,      /* J = 26 */
(PID.TID 0000.0001)                 2.365892017348392E+05,      /* J = 27 */
(PID.TID 0000.0001)                 2.220405216043041E+05,      /* J = 28 */
(PID.TID 0000.0001)                 2.048868197919577E+05,      /* J = 29 */
(PID.TID 0000.0001)                 1.840412227747703E+05,      /* J = 30 */
(PID.TID 0000.0001)                 1.572908084538706E+05,      /* J = 31 */
(PID.TID 0000.0001)                 1.202082051331828E+05       /* J = 32 */
(PID.TID 0000.0001)     ;
(PID.TID 0000.0001) dyF =  /* dyF(:,1,:,1) ( units: m ) */
(PID.TID 0000.0001)                 1.202082051331828E+05,      /* I =  1 */
(PID.TID 0000.0001)                 1.572908084538706E+05,      /* I =  2 */
(PID.TID 0000.0001)                 1.840412227747703E+05,      /* I =  3 */
(PID.TID 0000.0001)                 2.048868197919577E+05,      /* I =  4 */
(PID.TID 0000.0001)                 2.220405216043041E+05,      /* I =  5 */
(PID.TID 0000.0001)                 2.365892017348392E+05,      /* I =  6 */
(PID.TID 0000.0001)                 2.491250781852558E+05,      /* I =  7 */
(PID.TID 0000.0001)                 2.599949918261881E+05,      /* I =  8 */
(PID.TID 0000.0001)                 2.694110134598581E+05,      /* I =  9 */
(PID.TID 0000.0001)                 2.775055554645015E+05,      /* I = 10 */
(PID.TID 0000.0001)                 2.843615645344775E+05,      /* I = 11 */
(PID.TID 0000.0001)                 2.900303768613599E+05,      /* I = 12 */
(PID.TID 0000.0001)                 2.945429307892709E+05,      /* I = 13 */
(PID.TID 0000.0001)                 2.979171143158405E+05,      /* I = 14 */
(PID.TID 0000.0001)                 3.001626787528886E+05,      /* I = 15 */
(PID.TID 0000.0001)     2 @  3.012844832048790E+05,             /* I = 16: 17 */
(PID.TID 0000.0001)                 3.001626787528886E+05,      /* I = 18 */
(PID.TID 0000.0001)                 2.979171143158405E+05,      /* I = 19 */
(PID.TID 0000.0001)                 2.945429307892709E+05,      /* I = 20 */
(PID.TID 0000.0001)                 2.900303768613599E+05,      /* I = 21 */
(PID.TID 0000.0001)                 2.843615645344775E+05,      /* I = 22 */
(PID.TID 0000.0001)                 2.775055554645015E+05,      /* I = 23 */
(PID.TID 0000.0001)                 2.694110134598581E+05,      /* I = 24 */
(PID.TID 0000.0001)                 2.599949918261881E+05,      /* I = 25 */
(PID.TID 0000.0001)                 2.491250781852558E+05,      /* I = 26 */
(PID.TID 0000.0001)                 2.365892017348392E+05,      /* I = 27 */
(PID.TID 0000.0001)                 2.220405216043041E+05,      /* I = 28 */
(PID.TID 0000.0001)                 2.048868197919577E+05,      /* I = 29 */
(PID.TID 0000.0001)                 1.840412227747703E+05,      /* I = 30 */
(PID.TID 0000.0001)                 1.572908084538706E+05,      /* I = 31 */
(PID.TID 0000.0001)     2 @  1.202082051331828E+05,             /* I = 32: 33 */
(PID.TID 0000.0001)                 1.572908084538706E+05,      /* I = 34 */
(PID.TID 0000.0001)                 1.840412227747703E+05,      /* I = 35 */
(PID.TID 0000.0001)                 2.048868197919577E+05,      /* I = 36 */
(PID.TID 0000.0001)                 2.220405216043041E+05,      /* I = 37 */
(PID.TID 0000.0001)                 2.365892017348392E+05,      /* I = 38 */
(PID.TID 0000.0001)                 2.491250781852558E+05,      /* I = 39 */
(PID.TID 0000.0001)                 2.599949918261881E+05,      /* I = 40 */
(PID.TID 0000.0001)                 2.694110134598581E+05,      /* I = 41 */
(PID.TID 0000.0001)                 2.775055554645015E+05,      /* I = 42 */
(PID.TID 0000.0001)                 2.843615645344775E+05,      /* I = 43 */
(PID.TID 0000.0001)                 2.900303768613599E+05,      /* I = 44 */
(PID.TID 0000.0001)                 2.945429307892709E+05,      /* I = 45 */
(PID.TID 0000.0001)                 2.979171143158405E+05,      /* I = 46 */
(PID.TID 0000.0001)                 3.001626787528886E+05,      /* I = 47 */
(PID.TID 0000.0001)     2 @  3.012844832048790E+05,             /* I = 48: 49 */
(PID.TID 0000.0001)                 3.001626787528886E+05,      /* I = 50 */
(PID.TID 0000.0001)                 2.979171143158405E+05,      /* I = 51 */
(PID.TID 0000.0001)                 2.945429307892709E+05,      /* I = 52 */
(PID.TID 0000.0001)                 2.900303768613599E+05,      /* I = 53 */
(PID.TID 0000.0001)                 2.843615645344775E+05,      /* I = 54 */
(PID.TID 0000.0001)                 2.775055554645015E+05,      /* I = 55 */
(PID.TID 0000.0001)                 2.694110134598581E+05,      /* I = 56 */
(PID.TID 0000.0001)                 2.599949918261881E+05,      /* I = 57 */
(PID.TID 0000.0001)                 2.491250781852558E+05,      /* I = 58 */
(PID.TID 0000.0001)                 2.365892017348392E+05,      /* I = 59 */
(PID.TID 0000.0001)                 2.220405216043041E+05,      /* I = 60 */
(PID.TID 0000.0001)                 2.048868197919577E+05,      /* I = 61 */
(PID.TID 0000.0001)                 1.840412227747703E+05,      /* I = 62 */
(PID.TID 0000.0001)                 1.572908084538706E+05,      /* I = 63 */
(PID.TID 0000.0001)     2 @  1.202082051331828E+05,             /* I = 64: 65 */
(PID.TID 0000.0001)                 1.572908084538706E+05,      /* I = 66 */
(PID.TID 0000.0001)                 1.840412227747703E+05,      /* I = 67 */
(PID.TID 0000.0001)                 2.048868197919577E+05,      /* I = 68 */
(PID.TID 0000.0001)                 2.220405216043041E+05,      /* I = 69 */
(PID.TID 0000.0001)                 2.365892017348392E+05,      /* I = 70 */
(PID.TID 0000.0001)                 2.491250781852558E+05,      /* I = 71 */
(PID.TID 0000.0001)                 2.599949918261881E+05,      /* I = 72 */
(PID.TID 0000.0001)                 2.694110134598581E+05,      /* I = 73 */
(PID.TID 0000.0001)                 2.775055554645015E+05,      /* I = 74 */
(PID.TID 0000.0001)                 2.843615645344775E+05,      /* I = 75 */
(PID.TID 0000.0001)                 2.900303768613599E+05,      /* I = 76 */
(PID.TID 0000.0001)                 2.945429307892709E+05,      /* I = 77 */
(PID.TID 0000.0001)                 2.979171143158405E+05,      /* I = 78 */
(PID.TID 0000.0001)                 3.001626787528886E+05,      /* I = 79 */
(PID.TID 0000.0001)     2 @  3.012844832048790E+05,             /* I = 80: 81 */
(PID.TID 0000.0001)                 3.001626787528886E+05,      /* I = 82 */
(PID.TID 0000.0001)                 2.979171143158405E+05,      /* I = 83 */
(PID.TID 0000.0001)                 2.945429307892709E+05,      /* I = 84 */
(PID.TID 0000.0001)                 2.900303768613599E+05,      /* I = 85 */
(PID.TID 0000.0001)                 2.843615645344775E+05,      /* I = 86 */
(PID.TID 0000.0001)                 2.775055554645015E+05,      /* I = 87 */
(PID.TID 0000.0001)                 2.694110134598581E+05,      /* I = 88 */
(PID.TID 0000.0001)                 2.599949918261881E+05,      /* I = 89 */
(PID.TID 0000.0001)                 2.491250781852558E+05,      /* I = 90 */
(PID.TID 0000.0001)                 2.365892017348392E+05,      /* I = 91 */
(PID.TID 0000.0001)                 2.220405216043041E+05,      /* I = 92 */
(PID.TID 0000.0001)                 2.048868197919577E+05,      /* I = 93 */
(PID.TID 0000.0001)                 1.840412227747703E+05,      /* I = 94 */
(PID.TID 0000.0001)                 1.572908084538706E+05,      /* I = 95 */
(PID.TID 0000.0001)     2 @  1.202082051331828E+05,             /* I = 96: 97 */
(PID.TID 0000.0001)                 1.572908084538706E+05,      /* I = 98 */
(PID.TID 0000.0001)                 1.840412227747703E+05,      /* I = 99 */
(PID.TID 0000.0001)                 2.048868197919577E+05,      /* I =100 */
(PID.TID 0000.0001)                 2.220405216043041E+05,      /* I =101 */
(PID.TID 0000.0001)                 2.365892017348392E+05,      /* I =102 */
(PID.TID 0000.0001)                 2.491250781852558E+05,      /* I =103 */
(PID.TID 0000.0001)                 2.599949918261881E+05,      /* I =104 */
(PID.TID 0000.0001)                 2.694110134598581E+05,      /* I =105 */
(PID.TID 0000.0001)                 2.775055554645015E+05,      /* I =106 */
(PID.TID 0000.0001)                 2.843615645344775E+05,      /* I =107 */
(PID.TID 0000.0001)                 2.900303768613599E+05,      /* I =108 */
(PID.TID 0000.0001)                 2.945429307892709E+05,      /* I =109 */
(PID.TID 0000.0001)                 2.979171143158405E+05,      /* I =110 */
(PID.TID 0000.0001)                 3.001626787528886E+05,      /* I =111 */
(PID.TID 0000.0001)     2 @  3.012844832048790E+05,             /* I =112:113 */
(PID.TID 0000.0001)                 3.001626787528886E+05,      /* I =114 */
(PID.TID 0000.0001)                 2.979171143158405E+05,      /* I =115 */
(PID.TID 0000.0001)                 2.945429307892709E+05,      /* I =116 */
(PID.TID 0000.0001)                 2.900303768613599E+05,      /* I =117 */
(PID.TID 0000.0001)                 2.843615645344775E+05,      /* I =118 */
(PID.TID 0000.0001)                 2.775055554645015E+05,      /* I =119 */
(PID.TID 0000.0001)                 2.694110134598581E+05,      /* I =120 */
(PID.TID 0000.0001)                 2.599949918261881E+05,      /* I =121 */
(PID.TID 0000.0001)                 2.491250781852558E+05,      /* I =122 */
(PID.TID 0000.0001)                 2.365892017348392E+05,      /* I =123 */
(PID.TID 0000.0001)                 2.220405216043041E+05,      /* I =124 */
(PID.TID 0000.0001)                 2.048868197919577E+05,      /* I =125 */
(PID.TID 0000.0001)                 1.840412227747703E+05,      /* I =126 */
(PID.TID 0000.0001)                 1.572908084538706E+05,      /* I =127 */
(PID.TID 0000.0001)     2 @  1.202082051331828E+05,             /* I =128:129 */
(PID.TID 0000.0001)                 1.572908084538706E+05,      /* I =130 */
(PID.TID 0000.0001)                 1.840412227747703E+05,      /* I =131 */
(PID.TID 0000.0001)                 2.048868197919577E+05,      /* I =132 */
(PID.TID 0000.0001)                 2.220405216043041E+05,      /* I =133 */
(PID.TID 0000.0001)                 2.365892017348392E+05,      /* I =134 */
(PID.TID 0000.0001)                 2.491250781852558E+05,      /* I =135 */
(PID.TID 0000.0001)                 2.599949918261881E+05,      /* I =136 */
(PID.TID 0000.0001)                 2.694110134598581E+05,      /* I =137 */
(PID.TID 0000.0001)                 2.775055554645015E+05,      /* I =138 */
(PID.TID 0000.0001)                 2.843615645344775E+05,      /* I =139 */
(PID.TID 0000.0001)                 2.900303768613599E+05,      /* I =140 */
(PID.TID 0000.0001)                 2.945429307892709E+05,      /* I =141 */
(PID.TID 0000.0001)                 2.979171143158405E+05,      /* I =142 */
(PID.TID 0000.0001)                 3.001626787528886E+05,      /* I =143 */
(PID.TID 0000.0001)     2 @  3.012844832048790E+05,             /* I =144:145 */
(PID.TID 0000.0001)                 3.001626787528886E+05,      /* I =146 */
(PID.TID 0000.0001)                 2.979171143158405E+05,      /* I =147 */
(PID.TID 0000.0001)                 2.945429307892709E+05,      /* I =148 */
(PID.TID 0000.0001)                 2.900303768613599E+05,      /* I =149 */
(PID.TID 0000.0001)                 2.843615645344775E+05,      /* I =150 */
(PID.TID 0000.0001)                 2.775055554645015E+05,      /* I =151 */
(PID.TID 0000.0001)                 2.694110134598581E+05,      /* I =152 */
(PID.TID 0000.0001)                 2.599949918261881E+05,      /* I =153 */
(PID.TID 0000.0001)                 2.491250781852558E+05,      /* I =154 */
(PID.TID 0000.0001)                 2.365892017348392E+05,      /* I =155 */
(PID.TID 0000.0001)                 2.220405216043041E+05,      /* I =156 */
(PID.TID 0000.0001)                 2.048868197919577E+05,      /* I =157 */
(PID.TID 0000.0001)                 1.840412227747703E+05,      /* I =158 */
(PID.TID 0000.0001)                 1.572908084538706E+05,      /* I =159 */
(PID.TID 0000.0001)     2 @  1.202082051331828E+05,             /* I =160:161 */
(PID.TID 0000.0001)                 1.572908084538706E+05,      /* I =162 */
(PID.TID 0000.0001)                 1.840412227747703E+05,      /* I =163 */
(PID.TID 0000.0001)                 2.048868197919577E+05,      /* I =164 */
(PID.TID 0000.0001)                 2.220405216043041E+05,      /* I =165 */
(PID.TID 0000.0001)                 2.365892017348392E+05,      /* I =166 */
(PID.TID 0000.0001)                 2.491250781852558E+05,      /* I =167 */
(PID.TID 0000.0001)                 2.599949918261881E+05,      /* I =168 */
(PID.TID 0000.0001)                 2.694110134598581E+05,      /* I =169 */
(PID.TID 0000.0001)                 2.775055554645015E+05,      /* I =170 */
(PID.TID 0000.0001)                 2.843615645344775E+05,      /* I =171 */
(PID.TID 0000.0001)                 2.900303768613599E+05,      /* I =172 */
(PID.TID 0000.0001)                 2.945429307892709E+05,      /* I =173 */
(PID.TID 0000.0001)                 2.979171143158405E+05,      /* I =174 */
(PID.TID 0000.0001)                 3.001626787528886E+05,      /* I =175 */
(PID.TID 0000.0001)     2 @  3.012844832048790E+05,             /* I =176:177 */
(PID.TID 0000.0001)                 3.001626787528886E+05,      /* I =178 */
(PID.TID 0000.0001)                 2.979171143158405E+05,      /* I =179 */
(PID.TID 0000.0001)                 2.945429307892709E+05,      /* I =180 */
(PID.TID 0000.0001)                 2.900303768613599E+05,      /* I =181 */
(PID.TID 0000.0001)                 2.843615645344775E+05,      /* I =182 */
(PID.TID 0000.0001)                 2.775055554645015E+05,      /* I =183 */
(PID.TID 0000.0001)                 2.694110134598581E+05,      /* I =184 */
(PID.TID 0000.0001)                 2.599949918261881E+05,      /* I =185 */
(PID.TID 0000.0001)                 2.491250781852558E+05,      /* I =186 */
(PID.TID 0000.0001)                 2.365892017348392E+05,      /* I =187 */
(PID.TID 0000.0001)                 2.220405216043041E+05,      /* I =188 */
(PID.TID 0000.0001)                 2.048868197919577E+05,      /* I =189 */
(PID.TID 0000.0001)                 1.840412227747703E+05,      /* I =190 */
(PID.TID 0000.0001)                 1.572908084538706E+05,      /* I =191 */
(PID.TID 0000.0001)                 1.202082051331828E+05       /* I =192 */
(PID.TID 0000.0001)     ;
(PID.TID 0000.0001) dyF =  /* dyF(1,:,1,:) ( units: m ) */
(PID.TID 0000.0001)                 1.202082051331828E+05,      /* J =  1 */
(PID.TID 0000.0001)                 1.563594089971120E+05,      /* J =  2 */
(PID.TID 0000.0001)                 1.835530058121492E+05,      /* J =  3 */
(PID.TID 0000.0001)                 2.045883481718707E+05,      /* J =  4 */
(PID.TID 0000.0001)                 2.218350349844185E+05,      /* J =  5 */
(PID.TID 0000.0001)                 2.364352994647058E+05,      /* J =  6 */
(PID.TID 0000.0001)                 2.490022710862746E+05,      /* J =  7 */
(PID.TID 0000.0001)                 2.598919724358304E+05,      /* J =  8 */
(PID.TID 0000.0001)                 2.693210245495156E+05,      /* J =  9 */
(PID.TID 0000.0001)                 2.774243179696503E+05,      /* J = 10 */
(PID.TID 0000.0001)                 2.842862532064524E+05,      /* J = 11 */
(PID.TID 0000.0001)                 2.899590699694043E+05,      /* J = 12 */
(PID.TID 0000.0001)                 2.944742915095688E+05,      /* J = 13 */
(PID.TID 0000.0001)                 2.978501920522794E+05,      /* J = 14 */
(PID.TID 0000.0001)                 3.000967749619962E+05,      /* J = 15 */
(PID.TID 0000.0001)     2 @  3.012190981969055E+05,             /* J = 16: 17 */
(PID.TID 0000.0001)                 3.000967749619962E+05,      /* J = 18 */
(PID.TID 0000.0001)                 2.978501920522794E+05,      /* J = 19 */
(PID.TID 0000.0001)                 2.944742915095688E+05,      /* J = 20 */
(PID.TID 0000.0001)                 2.899590699694043E+05,      /* J = 21 */
(PID.TID 0000.0001)                 2.842862532064524E+05,      /* J = 22 */
(PID.TID 0000.0001)                 2.774243179696503E+05,      /* J = 23 */
(PID.TID 0000.0001)                 2.693210245495156E+05,      /* J = 24 */
(PID.TID 0000.0001)                 2.598919724358304E+05,      /* J = 25 */
(PID.TID 0000.0001)                 2.490022710862746E+05,      /* J = 26 */
(PID.TID 0000.0001)                 2.364352994647058E+05,      /* J = 27 */
(PID.TID 0000.0001)                 2.218350349844185E+05,      /* J = 28 */
(PID.TID 0000.0001)                 2.045883481718707E+05,      /* J = 29 */
(PID.TID 0000.0001)                 1.835530058121492E+05,      /* J = 30 */
(PID.TID 0000.0001)                 1.563594089971120E+05,      /* J = 31 */
(PID.TID 0000.0001)                 1.202082051331828E+05       /* J = 32 */
(PID.TID 0000.0001)     ;
(PID.TID 0000.0001) dxG =  /* dxG(:,1,:,1) ( units: m ) */
(PID.TID 0000.0001)                 1.009837800879055E+05,      /* I =  1 */
(PID.TID 0000.0001)                 1.534505834330338E+05,      /* I =  2 */
(PID.TID 0000.0001)                 1.823321598773926E+05,      /* I =  3 */
(PID.TID 0000.0001)                 2.038999045536999E+05,      /* I =  4 */
(PID.TID 0000.0001)                 2.213884732245467E+05,      /* I =  5 */
(PID.TID 0000.0001)                 2.361211699596122E+05,      /* I =  6 */
(PID.TID 0000.0001)                 2.487693460283865E+05,      /* I =  7 */
(PID.TID 0000.0001)                 2.597126963772147E+05,      /* I =  8 */
(PID.TID 0000.0001)                 2.691790288994575E+05,      /* I =  9 */
(PID.TID 0000.0001)                 2.773091043277394E+05,      /* I = 10 */
(PID.TID 0000.0001)                 2.841906470085516E+05,      /* I = 11 */
(PID.TID 0000.0001)                 2.898778860929753E+05,      /* I = 12 */
(PID.TID 0000.0001)                 2.944035815526416E+05,      /* I = 13 */
(PID.TID 0000.0001)                 2.977867909042096E+05,      /* I = 14 */
(PID.TID 0000.0001)                 3.000380090330854E+05,      /* I = 15 */
(PID.TID 0000.0001)     2 @  3.011625828699101E+05,             /* I = 16: 17 */
(PID.TID 0000.0001)                 3.000380090330854E+05,      /* I = 18 */
(PID.TID 0000.0001)                 2.977867909042096E+05,      /* I = 19 */
(PID.TID 0000.0001)                 2.944035815526416E+05,      /* I = 20 */
(PID.TID 0000.0001)                 2.898778860929753E+05,      /* I = 21 */
(PID.TID 0000.0001)                 2.841906470085516E+05,      /* I = 22 */
(PID.TID 0000.0001)                 2.773091043277394E+05,      /* I = 23 */
(PID.TID 0000.0001)                 2.691790288994575E+05,      /* I = 24 */
(PID.TID 0000.0001)                 2.597126963772147E+05,      /* I = 25 */
(PID.TID 0000.0001)                 2.487693460283865E+05,      /* I = 26 */
(PID.TID 0000.0001)                 2.361211699596122E+05,      /* I = 27 */
(PID.TID 0000.0001)                 2.213884732245467E+05,      /* I = 28 */
(PID.TID 0000.0001)                 2.038999045536999E+05,      /* I = 29 */
(PID.TID 0000.0001)                 1.823321598773926E+05,      /* I = 30 */
(PID.TID 0000.0001)                 1.534505834330338E+05,      /* I = 31 */
(PID.TID 0000.0001)     2 @  1.009837800879055E+05,             /* I = 32: 33 */
(PID.TID 0000.0001)                 1.534505834330338E+05,      /* I = 34 */
(PID.TID 0000.0001)                 1.823321598773926E+05,      /* I = 35 */
(PID.TID 0000.0001)                 2.038999045536999E+05,      /* I = 36 */
(PID.TID 0000.0001)                 2.213884732245467E+05,      /* I = 37 */
(PID.TID 0000.0001)                 2.361211699596122E+05,      /* I = 38 */
(PID.TID 0000.0001)                 2.487693460283865E+05,      /* I = 39 */
(PID.TID 0000.0001)                 2.597126963772147E+05,      /* I = 40 */
(PID.TID 0000.0001)                 2.691790288994575E+05,      /* I = 41 */
(PID.TID 0000.0001)                 2.773091043277394E+05,      /* I = 42 */
(PID.TID 0000.0001)                 2.841906470085516E+05,      /* I = 43 */
(PID.TID 0000.0001)                 2.898778860929753E+05,      /* I = 44 */
(PID.TID 0000.0001)                 2.944035815526416E+05,      /* I = 45 */
(PID.TID 0000.0001)                 2.977867909042096E+05,      /* I = 46 */
(PID.TID 0000.0001)                 3.000380090330854E+05,      /* I = 47 */
(PID.TID 0000.0001)     2 @  3.011625828699101E+05,             /* I = 48: 49 */
(PID.TID 0000.0001)                 3.000380090330854E+05,      /* I = 50 */
(PID.TID 0000.0001)                 2.977867909042096E+05,      /* I = 51 */
(PID.TID 0000.0001)                 2.944035815526416E+05,      /* I = 52 */
(PID.TID 0000.0001)                 2.898778860929753E+05,      /* I = 53 */
(PID.TID 0000.0001)                 2.841906470085516E+05,      /* I = 54 */
(PID.TID 0000.0001)                 2.773091043277394E+05,      /* I = 55 */
(PID.TID 0000.0001)                 2.691790288994575E+05,      /* I = 56 */
(PID.TID 0000.0001)                 2.597126963772147E+05,      /* I = 57 */
(PID.TID 0000.0001)                 2.487693460283865E+05,      /* I = 58 */
(PID.TID 0000.0001)                 2.361211699596122E+05,      /* I = 59 */
(PID.TID 0000.0001)                 2.213884732245467E+05,      /* I = 60 */
(PID.TID 0000.0001)                 2.038999045536999E+05,      /* I = 61 */
(PID.TID 0000.0001)                 1.823321598773926E+05,      /* I = 62 */
(PID.TID 0000.0001)                 1.534505834330338E+05,      /* I = 63 */
(PID.TID 0000.0001)     2 @  1.009837800879055E+05,             /* I = 64: 65 */
(PID.TID 0000.0001)                 1.534505834330338E+05,      /* I = 66 */
(PID.TID 0000.0001)                 1.823321598773926E+05,      /* I = 67 */
(PID.TID 0000.0001)                 2.038999045536999E+05,      /* I = 68 */
(PID.TID 0000.0001)                 2.213884732245467E+05,      /* I = 69 */
(PID.TID 0000.0001)                 2.361211699596122E+05,      /* I = 70 */
(PID.TID 0000.0001)                 2.487693460283865E+05,      /* I = 71 */
(PID.TID 0000.0001)                 2.597126963772147E+05,      /* I = 72 */
(PID.TID 0000.0001)                 2.691790288994575E+05,      /* I = 73 */
(PID.TID 0000.0001)                 2.773091043277394E+05,      /* I = 74 */
(PID.TID 0000.0001)                 2.841906470085516E+05,      /* I = 75 */
(PID.TID 0000.0001)                 2.898778860929753E+05,      /* I = 76 */
(PID.TID 0000.0001)                 2.944035815526416E+05,      /* I = 77 */
(PID.TID 0000.0001)                 2.977867909042096E+05,      /* I = 78 */
(PID.TID 0000.0001)                 3.000380090330854E+05,      /* I = 79 */
(PID.TID 0000.0001)     2 @  3.011625828699101E+05,             /* I = 80: 81 */
(PID.TID 0000.0001)                 3.000380090330854E+05,      /* I = 82 */
(PID.TID 0000.0001)                 2.977867909042096E+05,      /* I = 83 */
(PID.TID 0000.0001)                 2.944035815526416E+05,      /* I = 84 */
(PID.TID 0000.0001)                 2.898778860929753E+05,      /* I = 85 */
(PID.TID 0000.0001)                 2.841906470085516E+05,      /* I = 86 */
(PID.TID 0000.0001)                 2.773091043277394E+05,      /* I = 87 */
(PID.TID 0000.0001)                 2.691790288994575E+05,      /* I = 88 */
(PID.TID 0000.0001)                 2.597126963772147E+05,      /* I = 89 */
(PID.TID 0000.0001)                 2.487693460283865E+05,      /* I = 90 */
(PID.TID 0000.0001)                 2.361211699596122E+05,      /* I = 91 */
(PID.TID 0000.0001)                 2.213884732245467E+05,      /* I = 92 */
(PID.TID 0000.0001)                 2.038999045536999E+05,      /* I = 93 */
(PID.TID 0000.0001)                 1.823321598773926E+05,      /* I = 94 */
(PID.TID 0000.0001)                 1.534505834330338E+05,      /* I = 95 */
(PID.TID 0000.0001)     2 @  1.009837800879055E+05,             /* I = 96: 97 */
(PID.TID 0000.0001)                 1.534505834330338E+05,      /* I = 98 */
(PID.TID 0000.0001)                 1.823321598773926E+05,      /* I = 99 */
(PID.TID 0000.0001)                 2.038999045536999E+05,      /* I =100 */
(PID.TID 0000.0001)                 2.213884732245467E+05,      /* I =101 */
(PID.TID 0000.0001)                 2.361211699596122E+05,      /* I =102 */
(PID.TID 0000.0001)                 2.487693460283865E+05,      /* I =103 */
(PID.TID 0000.0001)                 2.597126963772147E+05,      /* I =104 */
(PID.TID 0000.0001)                 2.691790288994575E+05,      /* I =105 */
(PID.TID 0000.0001)                 2.773091043277394E+05,      /* I =106 */
(PID.TID 0000.0001)                 2.841906470085516E+05,      /* I =107 */
(PID.TID 0000.0001)                 2.898778860929753E+05,      /* I =108 */
(PID.TID 0000.0001)                 2.944035815526416E+05,      /* I =109 */
(PID.TID 0000.0001)                 2.977867909042096E+05,      /* I =110 */
(PID.TID 0000.0001)                 3.000380090330854E+05,      /* I =111 */
(PID.TID 0000.0001)     2 @  3.011625828699101E+05,             /* I =112:113 */
(PID.TID 0000.0001)                 3.000380090330854E+05,      /* I =114 */
(PID.TID 0000.0001)                 2.977867909042096E+05,      /* I =115 */
(PID.TID 0000.0001)                 2.944035815526416E+05,      /* I =116 */
(PID.TID 0000.0001)                 2.898778860929753E+05,      /* I =117 */
(PID.TID 0000.0001)                 2.841906470085516E+05,      /* I =118 */
(PID.TID 0000.0001)                 2.773091043277394E+05,      /* I =119 */
(PID.TID 0000.0001)                 2.691790288994575E+05,      /* I =120 */
(PID.TID 0000.0001)                 2.597126963772147E+05,      /* I =121 */
(PID.TID 0000.0001)                 2.487693460283865E+05,      /* I =122 */
(PID.TID 0000.0001)                 2.361211699596122E+05,      /* I =123 */
(PID.TID 0000.0001)                 2.213884732245467E+05,      /* I =124 */
(PID.TID 0000.0001)                 2.038999045536999E+05,      /* I =125 */
(PID.TID 0000.0001)                 1.823321598773926E+05,      /* I =126 */
(PID.TID 0000.0001)                 1.534505834330338E+05,      /* I =127 */
(PID.TID 0000.0001)     2 @  1.009837800879055E+05,             /* I =128:129 */
(PID.TID 0000.0001)                 1.534505834330338E+05,      /* I =130 */
(PID.TID 0000.0001)                 1.823321598773926E+05,      /* I =131 */
(PID.TID 0000.0001)                 2.038999045536999E+05,      /* I =132 */
(PID.TID 0000.0001)                 2.213884732245467E+05,      /* I =133 */
(PID.TID 0000.0001)                 2.361211699596122E+05,      /* I =134 */
(PID.TID 0000.0001)                 2.487693460283865E+05,      /* I =135 */
(PID.TID 0000.0001)                 2.597126963772147E+05,      /* I =136 */
(PID.TID 0000.0001)                 2.691790288994575E+05,      /* I =137 */
(PID.TID 0000.0001)                 2.773091043277394E+05,      /* I =138 */
(PID.TID 0000.0001)                 2.841906470085516E+05,      /* I =139 */
(PID.TID 0000.0001)                 2.898778860929753E+05,      /* I =140 */
(PID.TID 0000.0001)                 2.944035815526416E+05,      /* I =141 */
(PID.TID 0000.0001)                 2.977867909042096E+05,      /* I =142 */
(PID.TID 0000.0001)                 3.000380090330854E+05,      /* I =143 */
(PID.TID 0000.0001)     2 @  3.011625828699101E+05,             /* I =144:145 */
(PID.TID 0000.0001)                 3.000380090330854E+05,      /* I =146 */
(PID.TID 0000.0001)                 2.977867909042096E+05,      /* I =147 */
(PID.TID 0000.0001)                 2.944035815526416E+05,      /* I =148 */
(PID.TID 0000.0001)                 2.898778860929753E+05,      /* I =149 */
(PID.TID 0000.0001)                 2.841906470085516E+05,      /* I =150 */
(PID.TID 0000.0001)                 2.773091043277394E+05,      /* I =151 */
(PID.TID 0000.0001)                 2.691790288994575E+05,      /* I =152 */
(PID.TID 0000.0001)                 2.597126963772147E+05,      /* I =153 */
(PID.TID 0000.0001)                 2.487693460283865E+05,      /* I =154 */
(PID.TID 0000.0001)                 2.361211699596122E+05,      /* I =155 */
(PID.TID 0000.0001)                 2.213884732245467E+05,      /* I =156 */
(PID.TID 0000.0001)                 2.038999045536999E+05,      /* I =157 */
(PID.TID 0000.0001)                 1.823321598773926E+05,      /* I =158 */
(PID.TID 0000.0001)                 1.534505834330338E+05,      /* I =159 */
(PID.TID 0000.0001)     2 @  1.009837800879055E+05,             /* I =160:161 */
(PID.TID 0000.0001)                 1.534505834330338E+05,      /* I =162 */
(PID.TID 0000.0001)                 1.823321598773926E+05,      /* I =163 */
(PID.TID 0000.0001)                 2.038999045536999E+05,      /* I =164 */
(PID.TID 0000.0001)                 2.213884732245467E+05,      /* I =165 */
(PID.TID 0000.0001)                 2.361211699596122E+05,      /* I =166 */
(PID.TID 0000.0001)                 2.487693460283865E+05,      /* I =167 */
(PID.TID 0000.0001)                 2.597126963772147E+05,      /* I =168 */
(PID.TID 0000.0001)                 2.691790288994575E+05,      /* I =169 */
(PID.TID 0000.0001)                 2.773091043277394E+05,      /* I =170 */
(PID.TID 0000.0001)                 2.841906470085516E+05,      /* I =171 */
(PID.TID 0000.0001)                 2.898778860929753E+05,      /* I =172 */
(PID.TID 0000.0001)                 2.944035815526416E+05,      /* I =173 */
(PID.TID 0000.0001)                 2.977867909042096E+05,      /* I =174 */
(PID.TID 0000.0001)                 3.000380090330854E+05,      /* I =175 */
(PID.TID 0000.0001)     2 @  3.011625828699101E+05,             /* I =176:177 */
(PID.TID 0000.0001)                 3.000380090330854E+05,      /* I =178 */
(PID.TID 0000.0001)                 2.977867909042096E+05,      /* I =179 */
(PID.TID 0000.0001)                 2.944035815526416E+05,      /* I =180 */
(PID.TID 0000.0001)                 2.898778860929753E+05,      /* I =181 */
(PID.TID 0000.0001)                 2.841906470085516E+05,      /* I =182 */
(PID.TID 0000.0001)                 2.773091043277394E+05,      /* I =183 */
(PID.TID 0000.0001)                 2.691790288994575E+05,      /* I =184 */
(PID.TID 0000.0001)                 2.597126963772147E+05,      /* I =185 */
(PID.TID 0000.0001)                 2.487693460283865E+05,      /* I =186 */
(PID.TID 0000.0001)                 2.361211699596122E+05,      /* I =187 */
(PID.TID 0000.0001)                 2.213884732245467E+05,      /* I =188 */
(PID.TID 0000.0001)                 2.038999045536999E+05,      /* I =189 */
(PID.TID 0000.0001)                 1.823321598773926E+05,      /* I =190 */
(PID.TID 0000.0001)                 1.534505834330338E+05,      /* I =191 */
(PID.TID 0000.0001)                 1.009837800879055E+05       /* I =192 */
(PID.TID 0000.0001)     ;
(PID.TID 0000.0001) dxG =  /* dxG(1,:,1,:) ( units: m ) */
(PID.TID 0000.0001)                 1.009837800879055E+05,      /* J =  1 */
(PID.TID 0000.0001)                 1.403701524205399E+05,      /* J =  2 */
(PID.TID 0000.0001)                 1.716197227386011E+05,      /* J =  3 */
(PID.TID 0000.0001)                 1.950254041626018E+05,      /* J =  4 */
(PID.TID 0000.0001)                 2.138410773065497E+05,      /* J =  5 */
(PID.TID 0000.0001)                 2.295958105911512E+05,      /* J =  6 */
(PID.TID 0000.0001)                 2.430829951739083E+05,      /* J =  7 */
(PID.TID 0000.0001)                 2.547526806712889E+05,      /* J =  8 */
(PID.TID 0000.0001)                 2.648750305193301E+05,      /* J =  9 */
(PID.TID 0000.0001)                 2.736173771018112E+05,      /* J = 10 */
(PID.TID 0000.0001)                 2.810845823202647E+05,      /* J = 11 */
(PID.TID 0000.0001)                 2.873420591008078E+05,      /* J = 12 */
(PID.TID 0000.0001)                 2.924298293668651E+05,      /* J = 13 */
(PID.TID 0000.0001)                 2.963715635865306E+05,      /* J = 14 */
(PID.TID 0000.0001)                 2.991805843171258E+05,      /* J = 15 */
(PID.TID 0000.0001)                 3.008638765647886E+05,      /* J = 16 */
(PID.TID 0000.0001)                 3.014246674484008E+05,      /* J = 17 */
(PID.TID 0000.0001)                 3.008638765647886E+05,      /* J = 18 */
(PID.TID 0000.0001)                 2.991805843171258E+05,      /* J = 19 */
(PID.TID 0000.0001)                 2.963715635865306E+05,      /* J = 20 */
(PID.TID 0000.0001)                 2.924298293668651E+05,      /* J = 21 */
(PID.TID 0000.0001)                 2.873420591008078E+05,      /* J = 22 */
(PID.TID 0000.0001)                 2.810845823202647E+05,      /* J = 23 */
(PID.TID 0000.0001)                 2.736173771018112E+05,      /* J = 24 */
(PID.TID 0000.0001)                 2.648750305193301E+05,      /* J = 25 */
(PID.TID 0000.0001)                 2.547526806712889E+05,      /* J = 26 */
(PID.TID 0000.0001)                 2.430829951739083E+05,      /* J = 27 */
(PID.TID 0000.0001)                 2.295958105911512E+05,      /* J = 28 */
(PID.TID 0000.0001)                 2.138410773065497E+05,      /* J = 29 */
(PID.TID 0000.0001)                 1.950254041626018E+05,      /* J = 30 */
(PID.TID 0000.0001)                 1.716197227386011E+05,      /* J = 31 */
(PID.TID 0000.0001)                 1.403701524205399E+05       /* J = 32 */
(PID.TID 0000.0001)     ;
(PID.TID 0000.0001) dyG =  /* dyG(:,1,:,1) ( units: m ) */
(PID.TID 0000.0001)                 1.009837800879055E+05,      /* I =  1 */
(PID.TID 0000.0001)                 1.403701524205399E+05,      /* I =  2 */
(PID.TID 0000.0001)                 1.716197227386011E+05,      /* I =  3 */
(PID.TID 0000.0001)                 1.950254041626018E+05,      /* I =  4 */
(PID.TID 0000.0001)                 2.138410773065497E+05,      /* I =  5 */
(PID.TID 0000.0001)                 2.295958105911512E+05,      /* I =  6 */
(PID.TID 0000.0001)                 2.430829951739083E+05,      /* I =  7 */
(PID.TID 0000.0001)                 2.547526806712889E+05,      /* I =  8 */
(PID.TID 0000.0001)                 2.648750305193301E+05,      /* I =  9 */
(PID.TID 0000.0001)                 2.736173771018112E+05,      /* I = 10 */
(PID.TID 0000.0001)                 2.810845823202647E+05,      /* I = 11 */
(PID.TID 0000.0001)                 2.873420591008078E+05,      /* I = 12 */
(PID.TID 0000.0001)                 2.924298293668651E+05,      /* I = 13 */
(PID.TID 0000.0001)                 2.963715635865306E+05,      /* I = 14 */
(PID.TID 0000.0001)                 2.991805843171258E+05,      /* I = 15 */
(PID.TID 0000.0001)                 3.008638765647886E+05,      /* I = 16 */
(PID.TID 0000.0001)                 3.014246674484008E+05,      /* I = 17 */
(PID.TID 0000.0001)                 3.008638765647886E+05,      /* I = 18 */
(PID.TID 0000.0001)                 2.991805843171258E+05,      /* I = 19 */
(PID.TID 0000.0001)                 2.963715635865306E+05,      /* I = 20 */
(PID.TID 0000.0001)                 2.924298293668651E+05,      /* I = 21 */
(PID.TID 0000.0001)                 2.873420591008078E+05,      /* I = 22 */
(PID.TID 0000.0001)                 2.810845823202647E+05,      /* I = 23 */
(PID.TID 0000.0001)                 2.736173771018112E+05,      /* I = 24 */
(PID.TID 0000.0001)                 2.648750305193301E+05,      /* I = 25 */
(PID.TID 0000.0001)                 2.547526806712889E+05,      /* I = 26 */
(PID.TID 0000.0001)                 2.430829951739083E+05,      /* I = 27 */
(PID.TID 0000.0001)                 2.295958105911512E+05,      /* I = 28 */
(PID.TID 0000.0001)                 2.138410773065497E+05,      /* I = 29 */
(PID.TID 0000.0001)                 1.950254041626018E+05,      /* I = 30 */
(PID.TID 0000.0001)                 1.716197227386011E+05,      /* I = 31 */
(PID.TID 0000.0001)                 1.403701524205399E+05,      /* I = 32 */
(PID.TID 0000.0001)                 1.009837800879055E+05,      /* I = 33 */
(PID.TID 0000.0001)                 1.403701524205399E+05,      /* I = 34 */
(PID.TID 0000.0001)                 1.716197227386011E+05,      /* I = 35 */
(PID.TID 0000.0001)                 1.950254041626018E+05,      /* I = 36 */
(PID.TID 0000.0001)                 2.138410773065497E+05,      /* I = 37 */
(PID.TID 0000.0001)                 2.295958105911512E+05,      /* I = 38 */
(PID.TID 0000.0001)                 2.430829951739083E+05,      /* I = 39 */
(PID.TID 0000.0001)                 2.547526806712889E+05,      /* I = 40 */
(PID.TID 0000.0001)                 2.648750305193301E+05,      /* I = 41 */
(PID.TID 0000.0001)                 2.736173771018112E+05,      /* I = 42 */
(PID.TID 0000.0001)                 2.810845823202647E+05,      /* I = 43 */
(PID.TID 0000.0001)                 2.873420591008078E+05,      /* I = 44 */
(PID.TID 0000.0001)                 2.924298293668651E+05,      /* I = 45 */
(PID.TID 0000.0001)                 2.963715635865306E+05,      /* I = 46 */
(PID.TID 0000.0001)                 2.991805843171258E+05,      /* I = 47 */
(PID.TID 0000.0001)                 3.008638765647886E+05,      /* I = 48 */
(PID.TID 0000.0001)                 3.014246674484008E+05,      /* I = 49 */
(PID.TID 0000.0001)                 3.008638765647886E+05,      /* I = 50 */
(PID.TID 0000.0001)                 2.991805843171258E+05,      /* I = 51 */
(PID.TID 0000.0001)                 2.963715635865306E+05,      /* I = 52 */
(PID.TID 0000.0001)                 2.924298293668651E+05,      /* I = 53 */
(PID.TID 0000.0001)                 2.873420591008078E+05,      /* I = 54 */
(PID.TID 0000.0001)                 2.810845823202647E+05,      /* I = 55 */
(PID.TID 0000.0001)                 2.736173771018112E+05,      /* I = 56 */
(PID.TID 0000.0001)                 2.648750305193301E+05,      /* I = 57 */
(PID.TID 0000.0001)                 2.547526806712889E+05,      /* I = 58 */
(PID.TID 0000.0001)                 2.430829951739083E+05,      /* I = 59 */
(PID.TID 0000.0001)                 2.295958105911512E+05,      /* I = 60 */
(PID.TID 0000.0001)                 2.138410773065497E+05,      /* I = 61 */
(PID.TID 0000.0001)                 1.950254041626018E+05,      /* I = 62 */
(PID.TID 0000.0001)                 1.716197227386011E+05,      /* I = 63 */
(PID.TID 0000.0001)                 1.403701524205399E+05,      /* I = 64 */
(PID.TID 0000.0001)                 1.009837800879055E+05,      /* I = 65 */
(PID.TID 0000.0001)                 1.403701524205399E+05,      /* I = 66 */
(PID.TID 0000.0001)                 1.716197227386011E+05,      /* I = 67 */
(PID.TID 0000.0001)                 1.950254041626018E+05,      /* I = 68 */
(PID.TID 0000.0001)                 2.138410773065497E+05,      /* I = 69 */
(PID.TID 0000.0001)                 2.295958105911512E+05,      /* I = 70 */
(PID.TID 0000.0001)                 2.430829951739083E+05,      /* I = 71 */
(PID.TID 0000.0001)                 2.547526806712889E+05,      /* I = 72 */
(PID.TID 0000.0001)                 2.648750305193301E+05,      /* I = 73 */
(PID.TID 0000.0001)                 2.736173771018112E+05,      /* I = 74 */
(PID.TID 0000.0001)                 2.810845823202647E+05,      /* I = 75 */
(PID.TID 0000.0001)                 2.873420591008078E+05,      /* I = 76 */
(PID.TID 0000.0001)                 2.924298293668651E+05,      /* I = 77 */
(PID.TID 0000.0001)                 2.963715635865306E+05,      /* I = 78 */
(PID.TID 0000.0001)                 2.991805843171258E+05,      /* I = 79 */
(PID.TID 0000.0001)                 3.008638765647886E+05,      /* I = 80 */
(PID.TID 0000.0001)                 3.014246674484008E+05,      /* I = 81 */
(PID.TID 0000.0001)                 3.008638765647886E+05,      /* I = 82 */
(PID.TID 0000.0001)                 2.991805843171258E+05,      /* I = 83 */
(PID.TID 0000.0001)                 2.963715635865306E+05,      /* I = 84 */
(PID.TID 0000.0001)                 2.924298293668651E+05,      /* I = 85 */
(PID.TID 0000.0001)                 2.873420591008078E+05,      /* I = 86 */
(PID.TID 0000.0001)                 2.810845823202647E+05,      /* I = 87 */
(PID.TID 0000.0001)                 2.736173771018112E+05,      /* I = 88 */
(PID.TID 0000.0001)                 2.648750305193301E+05,      /* I = 89 */
(PID.TID 0000.0001)                 2.547526806712889E+05,      /* I = 90 */
(PID.TID 0000.0001)                 2.430829951739083E+05,      /* I = 91 */
(PID.TID 0000.0001)                 2.295958105911512E+05,      /* I = 92 */
(PID.TID 0000.0001)                 2.138410773065497E+05,      /* I = 93 */
(PID.TID 0000.0001)                 1.950254041626018E+05,      /* I = 94 */
(PID.TID 0000.0001)                 1.716197227386011E+05,      /* I = 95 */
(PID.TID 0000.0001)                 1.403701524205399E+05,      /* I = 96 */
(PID.TID 0000.0001)                 1.009837800879055E+05,      /* I = 97 */
(PID.TID 0000.0001)                 1.403701524205399E+05,      /* I = 98 */
(PID.TID 0000.0001)                 1.716197227386011E+05,      /* I = 99 */
(PID.TID 0000.0001)                 1.950254041626018E+05,      /* I =100 */
(PID.TID 0000.0001)                 2.138410773065497E+05,      /* I =101 */
(PID.TID 0000.0001)                 2.295958105911512E+05,      /* I =102 */
(PID.TID 0000.0001)                 2.430829951739083E+05,      /* I =103 */
(PID.TID 0000.0001)                 2.547526806712889E+05,      /* I =104 */
(PID.TID 0000.0001)                 2.648750305193301E+05,      /* I =105 */
(PID.TID 0000.0001)                 2.736173771018112E+05,      /* I =106 */
(PID.TID 0000.0001)                 2.810845823202647E+05,      /* I =107 */
(PID.TID 0000.0001)                 2.873420591008078E+05,      /* I =108 */
(PID.TID 0000.0001)                 2.924298293668651E+05,      /* I =109 */
(PID.TID 0000.0001)                 2.963715635865306E+05,      /* I =110 */
(PID.TID 0000.0001)                 2.991805843171258E+05,      /* I =111 */
(PID.TID 0000.0001)                 3.008638765647886E+05,      /* I =112 */
(PID.TID 0000.0001)                 3.014246674484008E+05,      /* I =113 */
(PID.TID 0000.0001)                 3.008638765647886E+05,      /* I =114 */
(PID.TID 0000.0001)                 2.991805843171258E+05,      /* I =115 */
(PID.TID 0000.0001)                 2.963715635865306E+05,      /* I =116 */
(PID.TID 0000.0001)                 2.924298293668651E+05,      /* I =117 */
(PID.TID 0000.0001)                 2.873420591008078E+05,      /* I =118 */
(PID.TID 0000.0001)                 2.810845823202647E+05,      /* I =119 */
(PID.TID 0000.0001)                 2.736173771018112E+05,      /* I =120 */
(PID.TID 0000.0001)                 2.648750305193301E+05,      /* I =121 */
(PID.TID 0000.0001)                 2.547526806712889E+05,      /* I =122 */
(PID.TID 0000.0001)                 2.430829951739083E+05,      /* I =123 */
(PID.TID 0000.0001)                 2.295958105911512E+05,      /* I =124 */
(PID.TID 0000.0001)                 2.138410773065497E+05,      /* I =125 */
(PID.TID 0000.0001)                 1.950254041626018E+05,      /* I =126 */
(PID.TID 0000.0001)                 1.716197227386011E+05,      /* I =127 */
(PID.TID 0000.0001)                 1.403701524205399E+05,      /* I =128 */
(PID.TID 0000.0001)                 1.009837800879055E+05,      /* I =129 */
(PID.TID 0000.0001)                 1.403701524205399E+05,      /* I =130 */
(PID.TID 0000.0001)                 1.716197227386011E+05,      /* I =131 */
(PID.TID 0000.0001)                 1.950254041626018E+05,      /* I =132 */
(PID.TID 0000.0001)                 2.138410773065497E+05,      /* I =133 */
(PID.TID 0000.0001)                 2.295958105911512E+05,      /* I =134 */
(PID.TID 0000.0001)                 2.430829951739083E+05,      /* I =135 */
(PID.TID 0000.0001)                 2.547526806712889E+05,      /* I =136 */
(PID.TID 0000.0001)                 2.648750305193301E+05,      /* I =137 */
(PID.TID 0000.0001)                 2.736173771018112E+05,      /* I =138 */
(PID.TID 0000.0001)                 2.810845823202647E+05,      /* I =139 */
(PID.TID 0000.0001)                 2.873420591008078E+05,      /* I =140 */
(PID.TID 0000.0001)                 2.924298293668651E+05,      /* I =141 */
(PID.TID 0000.0001)                 2.963715635865306E+05,      /* I =142 */
(PID.TID 0000.0001)                 2.991805843171258E+05,      /* I =143 */
(PID.TID 0000.0001)                 3.008638765647886E+05,      /* I =144 */
(PID.TID 0000.0001)                 3.014246674484008E+05,      /* I =145 */
(PID.TID 0000.0001)                 3.008638765647886E+05,      /* I =146 */
(PID.TID 0000.0001)                 2.991805843171258E+05,      /* I =147 */
(PID.TID 0000.0001)                 2.963715635865306E+05,      /* I =148 */
(PID.TID 0000.0001)                 2.924298293668651E+05,      /* I =149 */
(PID.TID 0000.0001)                 2.873420591008078E+05,      /* I =150 */
(PID.TID 0000.0001)                 2.810845823202647E+05,      /* I =151 */
(PID.TID 0000.0001)                 2.736173771018112E+05,      /* I =152 */
(PID.TID 0000.0001)                 2.648750305193301E+05,      /* I =153 */
(PID.TID 0000.0001)                 2.547526806712889E+05,      /* I =154 */
(PID.TID 0000.0001)                 2.430829951739083E+05,      /* I =155 */
(PID.TID 0000.0001)                 2.295958105911512E+05,      /* I =156 */
(PID.TID 0000.0001)                 2.138410773065497E+05,      /* I =157 */
(PID.TID 0000.0001)                 1.950254041626018E+05,      /* I =158 */
(PID.TID 0000.0001)                 1.716197227386011E+05,      /* I =159 */
(PID.TID 0000.0001)                 1.403701524205399E+05,      /* I =160 */
(PID.TID 0000.0001)                 1.009837800879055E+05,      /* I =161 */
(PID.TID 0000.0001)                 1.403701524205399E+05,      /* I =162 */
(PID.TID 0000.0001)                 1.716197227386011E+05,      /* I =163 */
(PID.TID 0000.0001)                 1.950254041626018E+05,      /* I =164 */
(PID.TID 0000.0001)                 2.138410773065497E+05,      /* I =165 */
(PID.TID 0000.0001)                 2.295958105911512E+05,      /* I =166 */
(PID.TID 0000.0001)                 2.430829951739083E+05,      /* I =167 */
(PID.TID 0000.0001)                 2.547526806712889E+05,      /* I =168 */
(PID.TID 0000.0001)                 2.648750305193301E+05,      /* I =169 */
(PID.TID 0000.0001)                 2.736173771018112E+05,      /* I =170 */
(PID.TID 0000.0001)                 2.810845823202647E+05,      /* I =171 */
(PID.TID 0000.0001)                 2.873420591008078E+05,      /* I =172 */
(PID.TID 0000.0001)                 2.924298293668651E+05,      /* I =173 */
(PID.TID 0000.0001)                 2.963715635865306E+05,      /* I =174 */
(PID.TID 0000.0001)                 2.991805843171258E+05,      /* I =175 */
(PID.TID 0000.0001)                 3.008638765647886E+05,      /* I =176 */
(PID.TID 0000.0001)                 3.014246674484008E+05,      /* I =177 */
(PID.TID 0000.0001)                 3.008638765647886E+05,      /* I =178 */
(PID.TID 0000.0001)                 2.991805843171258E+05,      /* I =179 */
(PID.TID 0000.0001)                 2.963715635865306E+05,      /* I =180 */
(PID.TID 0000.0001)                 2.924298293668651E+05,      /* I =181 */
(PID.TID 0000.0001)                 2.873420591008078E+05,      /* I =182 */
(PID.TID 0000.0001)                 2.810845823202647E+05,      /* I =183 */
(PID.TID 0000.0001)                 2.736173771018112E+05,      /* I =184 */
(PID.TID 0000.0001)                 2.648750305193301E+05,      /* I =185 */
(PID.TID 0000.0001)                 2.547526806712889E+05,      /* I =186 */
(PID.TID 0000.0001)                 2.430829951739083E+05,      /* I =187 */
(PID.TID 0000.0001)                 2.295958105911512E+05,      /* I =188 */
(PID.TID 0000.0001)                 2.138410773065497E+05,      /* I =189 */
(PID.TID 0000.0001)                 1.950254041626018E+05,      /* I =190 */
(PID.TID 0000.0001)                 1.716197227386011E+05,      /* I =191 */
(PID.TID 0000.0001)                 1.403701524205399E+05       /* I =192 */
(PID.TID 0000.0001)     ;
(PID.TID 0000.0001) dyG =  /* dyG(1,:,1,:) ( units: m ) */
(PID.TID 0000.0001)                 1.009837800879055E+05,      /* J =  1 */
(PID.TID 0000.0001)                 1.534505834330338E+05,      /* J =  2 */
(PID.TID 0000.0001)                 1.823321598773926E+05,      /* J =  3 */
(PID.TID 0000.0001)                 2.038999045536999E+05,      /* J =  4 */
(PID.TID 0000.0001)                 2.213884732245467E+05,      /* J =  5 */
(PID.TID 0000.0001)                 2.361211699596122E+05,      /* J =  6 */
(PID.TID 0000.0001)                 2.487693460283865E+05,      /* J =  7 */
(PID.TID 0000.0001)                 2.597126963772147E+05,      /* J =  8 */
(PID.TID 0000.0001)                 2.691790288994575E+05,      /* J =  9 */
(PID.TID 0000.0001)                 2.773091043277394E+05,      /* J = 10 */
(PID.TID 0000.0001)                 2.841906470085516E+05,      /* J = 11 */
(PID.TID 0000.0001)                 2.898778860929753E+05,      /* J = 12 */
(PID.TID 0000.0001)                 2.944035815526416E+05,      /* J = 13 */
(PID.TID 0000.0001)                 2.977867909042096E+05,      /* J = 14 */
(PID.TID 0000.0001)                 3.000380090330854E+05,      /* J = 15 */
(PID.TID 0000.0001)     2 @  3.011625828699101E+05,             /* J = 16: 17 */
(PID.TID 0000.0001)                 3.000380090330854E+05,      /* J = 18 */
(PID.TID 0000.0001)                 2.977867909042096E+05,      /* J = 19 */
(PID.TID 0000.0001)                 2.944035815526416E+05,      /* J = 20 */
(PID.TID 0000.0001)                 2.898778860929753E+05,      /* J = 21 */
(PID.TID 0000.0001)                 2.841906470085516E+05,      /* J = 22 */
(PID.TID 0000.0001)                 2.773091043277394E+05,      /* J = 23 */
(PID.TID 0000.0001)                 2.691790288994575E+05,      /* J = 24 */
(PID.TID 0000.0001)                 2.597126963772147E+05,      /* J = 25 */
(PID.TID 0000.0001)                 2.487693460283865E+05,      /* J = 26 */
(PID.TID 0000.0001)                 2.361211699596122E+05,      /* J = 27 */
(PID.TID 0000.0001)                 2.213884732245467E+05,      /* J = 28 */
(PID.TID 0000.0001)                 2.038999045536999E+05,      /* J = 29 */
(PID.TID 0000.0001)                 1.823321598773926E+05,      /* J = 30 */
(PID.TID 0000.0001)                 1.534505834330338E+05,      /* J = 31 */
(PID.TID 0000.0001)                 1.009837800879055E+05       /* J = 32 */
(PID.TID 0000.0001)     ;
(PID.TID 0000.0001) dxC =  /* dxC(:,1,:,1) ( units: m ) */
(PID.TID 0000.0001)                 1.135373000692312E+05,      /* I =  1 */
(PID.TID 0000.0001)                 1.391343389937106E+05,      /* I =  2 */
(PID.TID 0000.0001)                 1.709574999026267E+05,      /* I =  3 */
(PID.TID 0000.0001)                 1.946503699269892E+05,      /* I =  4 */
(PID.TID 0000.0001)                 2.135964483342134E+05,      /* I =  5 */
(PID.TID 0000.0001)                 2.294195678257306E+05,      /* I =  6 */
(PID.TID 0000.0001)                 2.429464709770498E+05,      /* I =  7 */
(PID.TID 0000.0001)                 2.546408290696998E+05,      /* I =  8 */
(PID.TID 0000.0001)                 2.647791839299727E+05,      /* I =  9 */
(PID.TID 0000.0001)                 2.735321911346108E+05,      /* I = 10 */
(PID.TID 0000.0001)                 2.810065951609633E+05,      /* I = 11 */
(PID.TID 0000.0001)                 2.872689479506990E+05,      /* I = 12 */
(PID.TID 0000.0001)                 2.923599955312932E+05,      /* I = 13 */
(PID.TID 0000.0001)                 2.963038832565530E+05,      /* I = 14 */
(PID.TID 0000.0001)                 2.991142470004740E+05,      /* I = 15 */
(PID.TID 0000.0001)                 3.007982711627968E+05,      /* I = 16 */
(PID.TID 0000.0001)                 3.013593857228136E+05,      /* I = 17 */
(PID.TID 0000.0001)                 3.007982711627968E+05,      /* I = 18 */
(PID.TID 0000.0001)                 2.991142470004740E+05,      /* I = 19 */
(PID.TID 0000.0001)                 2.963038832565530E+05,      /* I = 20 */
(PID.TID 0000.0001)                 2.923599955312932E+05,      /* I = 21 */
(PID.TID 0000.0001)                 2.872689479506990E+05,      /* I = 22 */
(PID.TID 0000.0001)                 2.810065951609633E+05,      /* I = 23 */
(PID.TID 0000.0001)                 2.735321911346108E+05,      /* I = 24 */
(PID.TID 0000.0001)                 2.647791839299727E+05,      /* I = 25 */
(PID.TID 0000.0001)                 2.546408290696998E+05,      /* I = 26 */
(PID.TID 0000.0001)                 2.429464709770498E+05,      /* I = 27 */
(PID.TID 0000.0001)                 2.294195678257306E+05,      /* I = 28 */
(PID.TID 0000.0001)                 2.135964483342134E+05,      /* I = 29 */
(PID.TID 0000.0001)                 1.946503699269892E+05,      /* I = 30 */
(PID.TID 0000.0001)                 1.709574999026267E+05,      /* I = 31 */
(PID.TID 0000.0001)                 1.391343389937106E+05,      /* I = 32 */
(PID.TID 0000.0001)                 1.135373000692312E+05,      /* I = 33 */
(PID.TID 0000.0001)                 1.391343389937106E+05,      /* I = 34 */
(PID.TID 0000.0001)                 1.709574999026267E+05,      /* I = 35 */
(PID.TID 0000.0001)                 1.946503699269892E+05,      /* I = 36 */
(PID.TID 0000.0001)                 2.135964483342134E+05,      /* I = 37 */
(PID.TID 0000.0001)                 2.294195678257306E+05,      /* I = 38 */
(PID.TID 0000.0001)                 2.429464709770498E+05,      /* I = 39 */
(PID.TID 0000.0001)                 2.546408290696998E+05,      /* I = 40 */
(PID.TID 0000.0001)                 2.647791839299727E+05,      /* I = 41 */
(PID.TID 0000.0001)                 2.735321911346108E+05,      /* I = 42 */
(PID.TID 0000.0001)                 2.810065951609633E+05,      /* I = 43 */
(PID.TID 0000.0001)                 2.872689479506990E+05,      /* I = 44 */
(PID.TID 0000.0001)                 2.923599955312932E+05,      /* I = 45 */
(PID.TID 0000.0001)                 2.963038832565530E+05,      /* I = 46 */
(PID.TID 0000.0001)                 2.991142470004740E+05,      /* I = 47 */
(PID.TID 0000.0001)                 3.007982711627968E+05,      /* I = 48 */
(PID.TID 0000.0001)                 3.013593857228136E+05,      /* I = 49 */
(PID.TID 0000.0001)                 3.007982711627968E+05,      /* I = 50 */
(PID.TID 0000.0001)                 2.991142470004740E+05,      /* I = 51 */
(PID.TID 0000.0001)                 2.963038832565530E+05,      /* I = 52 */
(PID.TID 0000.0001)                 2.923599955312932E+05,      /* I = 53 */
(PID.TID 0000.0001)                 2.872689479506990E+05,      /* I = 54 */
(PID.TID 0000.0001)                 2.810065951609633E+05,      /* I = 55 */
(PID.TID 0000.0001)                 2.735321911346108E+05,      /* I = 56 */
(PID.TID 0000.0001)                 2.647791839299727E+05,      /* I = 57 */
(PID.TID 0000.0001)                 2.546408290696998E+05,      /* I = 58 */
(PID.TID 0000.0001)                 2.429464709770498E+05,      /* I = 59 */
(PID.TID 0000.0001)                 2.294195678257306E+05,      /* I = 60 */
(PID.TID 0000.0001)                 2.135964483342134E+05,      /* I = 61 */
(PID.TID 0000.0001)                 1.946503699269892E+05,      /* I = 62 */
(PID.TID 0000.0001)                 1.709574999026267E+05,      /* I = 63 */
(PID.TID 0000.0001)                 1.391343389937106E+05,      /* I = 64 */
(PID.TID 0000.0001)                 1.135373000692312E+05,      /* I = 65 */
(PID.TID 0000.0001)                 1.391343389937106E+05,      /* I = 66 */
(PID.TID 0000.0001)                 1.709574999026267E+05,      /* I = 67 */
(PID.TID 0000.0001)                 1.946503699269892E+05,      /* I = 68 */
(PID.TID 0000.0001)                 2.135964483342134E+05,      /* I = 69 */
(PID.TID 0000.0001)                 2.294195678257306E+05,      /* I = 70 */
(PID.TID 0000.0001)                 2.429464709770498E+05,      /* I = 71 */
(PID.TID 0000.0001)                 2.546408290696998E+05,      /* I = 72 */
(PID.TID 0000.0001)                 2.647791839299727E+05,      /* I = 73 */
(PID.TID 0000.0001)                 2.735321911346108E+05,      /* I = 74 */
(PID.TID 0000.0001)                 2.810065951609633E+05,      /* I = 75 */
(PID.TID 0000.0001)                 2.872689479506990E+05,      /* I = 76 */
(PID.TID 0000.0001)                 2.923599955312932E+05,      /* I = 77 */
(PID.TID 0000.0001)                 2.963038832565530E+05,      /* I = 78 */
(PID.TID 0000.0001)                 2.991142470004740E+05,      /* I = 79 */
(PID.TID 0000.0001)                 3.007982711627968E+05,      /* I = 80 */
(PID.TID 0000.0001)                 3.013593857228136E+05,      /* I = 81 */
(PID.TID 0000.0001)                 3.007982711627968E+05,      /* I = 82 */
(PID.TID 0000.0001)                 2.991142470004740E+05,      /* I = 83 */
(PID.TID 0000.0001)                 2.963038832565530E+05,      /* I = 84 */
(PID.TID 0000.0001)                 2.923599955312932E+05,      /* I = 85 */
(PID.TID 0000.0001)                 2.872689479506990E+05,      /* I = 86 */
(PID.TID 0000.0001)                 2.810065951609633E+05,      /* I = 87 */
(PID.TID 0000.0001)                 2.735321911346108E+05,      /* I = 88 */
(PID.TID 0000.0001)                 2.647791839299727E+05,      /* I = 89 */
(PID.TID 0000.0001)                 2.546408290696998E+05,      /* I = 90 */
(PID.TID 0000.0001)                 2.429464709770498E+05,      /* I = 91 */
(PID.TID 0000.0001)                 2.294195678257306E+05,      /* I = 92 */
(PID.TID 0000.0001)                 2.135964483342134E+05,      /* I = 93 */
(PID.TID 0000.0001)                 1.946503699269892E+05,      /* I = 94 */
(PID.TID 0000.0001)                 1.709574999026267E+05,      /* I = 95 */
(PID.TID 0000.0001)                 1.391343389937106E+05,      /* I = 96 */
(PID.TID 0000.0001)                 1.135373000692312E+05,      /* I = 97 */
(PID.TID 0000.0001)                 1.391343389937106E+05,      /* I = 98 */
(PID.TID 0000.0001)                 1.709574999026267E+05,      /* I = 99 */
(PID.TID 0000.0001)                 1.946503699269892E+05,      /* I =100 */
(PID.TID 0000.0001)                 2.135964483342134E+05,      /* I =101 */
(PID.TID 0000.0001)                 2.294195678257306E+05,      /* I =102 */
(PID.TID 0000.0001)                 2.429464709770498E+05,      /* I =103 */
(PID.TID 0000.0001)                 2.546408290696998E+05,      /* I =104 */
(PID.TID 0000.0001)                 2.647791839299727E+05,      /* I =105 */
(PID.TID 0000.0001)                 2.735321911346108E+05,      /* I =106 */
(PID.TID 0000.0001)                 2.810065951609633E+05,      /* I =107 */
(PID.TID 0000.0001)                 2.872689479506990E+05,      /* I =108 */
(PID.TID 0000.0001)                 2.923599955312932E+05,      /* I =109 */
(PID.TID 0000.0001)                 2.963038832565530E+05,      /* I =110 */
(PID.TID 0000.0001)                 2.991142470004740E+05,      /* I =111 */
(PID.TID 0000.0001)                 3.007982711627968E+05,      /* I =112 */
(PID.TID 0000.0001)                 3.013593857228136E+05,      /* I =113 */
(PID.TID 0000.0001)                 3.007982711627968E+05,      /* I =114 */
(PID.TID 0000.0001)                 2.991142470004740E+05,      /* I =115 */
(PID.TID 0000.0001)                 2.963038832565530E+05,      /* I =116 */
(PID.TID 0000.0001)                 2.923599955312932E+05,      /* I =117 */
(PID.TID 0000.0001)                 2.872689479506990E+05,      /* I =118 */
(PID.TID 0000.0001)                 2.810065951609633E+05,      /* I =119 */
(PID.TID 0000.0001)                 2.735321911346108E+05,      /* I =120 */
(PID.TID 0000.0001)                 2.647791839299727E+05,      /* I =121 */
(PID.TID 0000.0001)                 2.546408290696998E+05,      /* I =122 */
(PID.TID 0000.0001)                 2.429464709770498E+05,      /* I =123 */
(PID.TID 0000.0001)                 2.294195678257306E+05,      /* I =124 */
(PID.TID 0000.0001)                 2.135964483342134E+05,      /* I =125 */
(PID.TID 0000.0001)                 1.946503699269892E+05,      /* I =126 */
(PID.TID 0000.0001)                 1.709574999026267E+05,      /* I =127 */
(PID.TID 0000.0001)                 1.391343389937106E+05,      /* I =128 */
(PID.TID 0000.0001)                 1.135373000692312E+05,      /* I =129 */
(PID.TID 0000.0001)                 1.391343389937106E+05,      /* I =130 */
(PID.TID 0000.0001)                 1.709574999026267E+05,      /* I =131 */
(PID.TID 0000.0001)                 1.946503699269892E+05,      /* I =132 */
(PID.TID 0000.0001)                 2.135964483342134E+05,      /* I =133 */
(PID.TID 0000.0001)                 2.294195678257306E+05,      /* I =134 */
(PID.TID 0000.0001)                 2.429464709770498E+05,      /* I =135 */
(PID.TID 0000.0001)                 2.546408290696998E+05,      /* I =136 */
(PID.TID 0000.0001)                 2.647791839299727E+05,      /* I =137 */
(PID.TID 0000.0001)                 2.735321911346108E+05,      /* I =138 */
(PID.TID 0000.0001)                 2.810065951609633E+05,      /* I =139 */
(PID.TID 0000.0001)                 2.872689479506990E+05,      /* I =140 */
(PID.TID 0000.0001)                 2.923599955312932E+05,      /* I =141 */
(PID.TID 0000.0001)                 2.963038832565530E+05,      /* I =142 */
(PID.TID 0000.0001)                 2.991142470004740E+05,      /* I =143 */
(PID.TID 0000.0001)                 3.007982711627968E+05,      /* I =144 */
(PID.TID 0000.0001)                 3.013593857228136E+05,      /* I =145 */
(PID.TID 0000.0001)                 3.007982711627968E+05,      /* I =146 */
(PID.TID 0000.0001)                 2.991142470004740E+05,      /* I =147 */
(PID.TID 0000.0001)                 2.963038832565530E+05,      /* I =148 */
(PID.TID 0000.0001)                 2.923599955312932E+05,      /* I =149 */
(PID.TID 0000.0001)                 2.872689479506990E+05,      /* I =150 */
(PID.TID 0000.0001)                 2.810065951609633E+05,      /* I =151 */
(PID.TID 0000.0001)                 2.735321911346108E+05,      /* I =152 */
(PID.TID 0000.0001)                 2.647791839299727E+05,      /* I =153 */
(PID.TID 0000.0001)                 2.546408290696998E+05,      /* I =154 */
(PID.TID 0000.0001)                 2.429464709770498E+05,      /* I =155 */
(PID.TID 0000.0001)                 2.294195678257306E+05,      /* I =156 */
(PID.TID 0000.0001)                 2.135964483342134E+05,      /* I =157 */
(PID.TID 0000.0001)                 1.946503699269892E+05,      /* I =158 */
(PID.TID 0000.0001)                 1.709574999026267E+05,      /* I =159 */
(PID.TID 0000.0001)                 1.391343389937106E+05,      /* I =160 */
(PID.TID 0000.0001)                 1.135373000692312E+05,      /* I =161 */
(PID.TID 0000.0001)                 1.391343389937106E+05,      /* I =162 */
(PID.TID 0000.0001)                 1.709574999026267E+05,      /* I =163 */
(PID.TID 0000.0001)                 1.946503699269892E+05,      /* I =164 */
(PID.TID 0000.0001)                 2.135964483342134E+05,      /* I =165 */
(PID.TID 0000.0001)                 2.294195678257306E+05,      /* I =166 */
(PID.TID 0000.0001)                 2.429464709770498E+05,      /* I =167 */
(PID.TID 0000.0001)                 2.546408290696998E+05,      /* I =168 */
(PID.TID 0000.0001)                 2.647791839299727E+05,      /* I =169 */
(PID.TID 0000.0001)                 2.735321911346108E+05,      /* I =170 */
(PID.TID 0000.0001)                 2.810065951609633E+05,      /* I =171 */
(PID.TID 0000.0001)                 2.872689479506990E+05,      /* I =172 */
(PID.TID 0000.0001)                 2.923599955312932E+05,      /* I =173 */
(PID.TID 0000.0001)                 2.963038832565530E+05,      /* I =174 */
(PID.TID 0000.0001)                 2.991142470004740E+05,      /* I =175 */
(PID.TID 0000.0001)                 3.007982711627968E+05,      /* I =176 */
(PID.TID 0000.0001)                 3.013593857228136E+05,      /* I =177 */
(PID.TID 0000.0001)                 3.007982711627968E+05,      /* I =178 */
(PID.TID 0000.0001)                 2.991142470004740E+05,      /* I =179 */
(PID.TID 0000.0001)                 2.963038832565530E+05,      /* I =180 */
(PID.TID 0000.0001)                 2.923599955312932E+05,      /* I =181 */
(PID.TID 0000.0001)                 2.872689479506990E+05,      /* I =182 */
(PID.TID 0000.0001)                 2.810065951609633E+05,      /* I =183 */
(PID.TID 0000.0001)                 2.735321911346108E+05,      /* I =184 */
(PID.TID 0000.0001)                 2.647791839299727E+05,      /* I =185 */
(PID.TID 0000.0001)                 2.546408290696998E+05,      /* I =186 */
(PID.TID 0000.0001)                 2.429464709770498E+05,      /* I =187 */
(PID.TID 0000.0001)                 2.294195678257306E+05,      /* I =188 */
(PID.TID 0000.0001)                 2.135964483342134E+05,      /* I =189 */
(PID.TID 0000.0001)                 1.946503699269892E+05,      /* I =190 */
(PID.TID 0000.0001)                 1.709574999026267E+05,      /* I =191 */
(PID.TID 0000.0001)                 1.391343389937106E+05       /* I =192 */
(PID.TID 0000.0001)     ;
(PID.TID 0000.0001) dxC =  /* dxC(1,:,1,:) ( units: m ) */
(PID.TID 0000.0001)                 1.135373000692312E+05,      /* J =  1 */
(PID.TID 0000.0001)                 1.549545757850771E+05,      /* J =  2 */
(PID.TID 0000.0001)                 1.829777599966776E+05,      /* J =  3 */
(PID.TID 0000.0001)                 2.042717761866506E+05,      /* J =  4 */
(PID.TID 0000.0001)                 2.216367828252819E+05,      /* J =  5 */
(PID.TID 0000.0001)                 2.363029564123586E+05,      /* J =  6 */
(PID.TID 0000.0001)                 2.489113743322025E+05,      /* J =  7 */
(PID.TID 0000.0001)                 2.598293319150326E+05,      /* J =  8 */
(PID.TID 0000.0001)                 2.692787333338535E+05,      /* J =  9 */
(PID.TID 0000.0001)                 2.773972106720365E+05,      /* J = 10 */
(PID.TID 0000.0001)                 2.842706922224558E+05,      /* J = 11 */
(PID.TID 0000.0001)                 2.899523122489404E+05,      /* J = 12 */
(PID.TID 0000.0001)                 2.944741346384699E+05,      /* J = 13 */
(PID.TID 0000.0001)                 2.978547649292580E+05,      /* J = 14 */
(PID.TID 0000.0001)                 3.001044073506459E+05,      /* J = 15 */
(PID.TID 0000.0001)     2 @  3.012281885409289E+05,             /* J = 16: 17 */
(PID.TID 0000.0001)                 3.001044073506459E+05,      /* J = 18 */
(PID.TID 0000.0001)                 2.978547649292580E+05,      /* J = 19 */
(PID.TID 0000.0001)                 2.944741346384699E+05,      /* J = 20 */
(PID.TID 0000.0001)                 2.899523122489404E+05,      /* J = 21 */
(PID.TID 0000.0001)                 2.842706922224558E+05,      /* J = 22 */
(PID.TID 0000.0001)                 2.773972106720365E+05,      /* J = 23 */
(PID.TID 0000.0001)                 2.692787333338535E+05,      /* J = 24 */
(PID.TID 0000.0001)                 2.598293319150326E+05,      /* J = 25 */
(PID.TID 0000.0001)                 2.489113743322025E+05,      /* J = 26 */
(PID.TID 0000.0001)                 2.363029564123586E+05,      /* J = 27 */
(PID.TID 0000.0001)                 2.216367828252819E+05,      /* J = 28 */
(PID.TID 0000.0001)                 2.042717761866506E+05,      /* J = 29 */
(PID.TID 0000.0001)                 1.829777599966776E+05,      /* J = 30 */
(PID.TID 0000.0001)                 1.549545757850771E+05,      /* J = 31 */
(PID.TID 0000.0001)                 1.135373000692312E+05       /* J = 32 */
(PID.TID 0000.0001)     ;
(PID.TID 0000.0001) dyC =  /* dyC(:,1,:,1) ( units: m ) */
(PID.TID 0000.0001)                 1.135373000692312E+05,      /* I =  1 */
(PID.TID 0000.0001)                 1.549545757850771E+05,      /* I =  2 */
(PID.TID 0000.0001)                 1.829777599966776E+05,      /* I =  3 */
(PID.TID 0000.0001)                 2.042717761866506E+05,      /* I =  4 */
(PID.TID 0000.0001)                 2.216367828252819E+05,      /* I =  5 */
(PID.TID 0000.0001)                 2.363029564123586E+05,      /* I =  6 */
(PID.TID 0000.0001)                 2.489113743322025E+05,      /* I =  7 */
(PID.TID 0000.0001)                 2.598293319150326E+05,      /* I =  8 */
(PID.TID 0000.0001)                 2.692787333338535E+05,      /* I =  9 */
(PID.TID 0000.0001)                 2.773972106720365E+05,      /* I = 10 */
(PID.TID 0000.0001)                 2.842706922224558E+05,      /* I = 11 */
(PID.TID 0000.0001)                 2.899523122489404E+05,      /* I = 12 */
(PID.TID 0000.0001)                 2.944741346384699E+05,      /* I = 13 */
(PID.TID 0000.0001)                 2.978547649292580E+05,      /* I = 14 */
(PID.TID 0000.0001)                 3.001044073506459E+05,      /* I = 15 */
(PID.TID 0000.0001)     2 @  3.012281885409289E+05,             /* I = 16: 17 */
(PID.TID 0000.0001)                 3.001044073506459E+05,      /* I = 18 */
(PID.TID 0000.0001)                 2.978547649292580E+05,      /* I = 19 */
(PID.TID 0000.0001)                 2.944741346384699E+05,      /* I = 20 */
(PID.TID 0000.0001)                 2.899523122489404E+05,      /* I = 21 */
(PID.TID 0000.0001)                 2.842706922224558E+05,      /* I = 22 */
(PID.TID 0000.0001)                 2.773972106720365E+05,      /* I = 23 */
(PID.TID 0000.0001)                 2.692787333338535E+05,      /* I = 24 */
(PID.TID 0000.0001)                 2.598293319150326E+05,      /* I = 25 */
(PID.TID 0000.0001)                 2.489113743322025E+05,      /* I = 26 */
(PID.TID 0000.0001)                 2.363029564123586E+05,      /* I = 27 */
(PID.TID 0000.0001)                 2.216367828252819E+05,      /* I = 28 */
(PID.TID 0000.0001)                 2.042717761866506E+05,      /* I = 29 */
(PID.TID 0000.0001)                 1.829777599966776E+05,      /* I = 30 */
(PID.TID 0000.0001)                 1.549545757850771E+05,      /* I = 31 */
(PID.TID 0000.0001)     2 @  1.135373000692312E+05,             /* I = 32: 33 */
(PID.TID 0000.0001)                 1.549545757850771E+05,      /* I = 34 */
(PID.TID 0000.0001)                 1.829777599966776E+05,      /* I = 35 */
(PID.TID 0000.0001)                 2.042717761866506E+05,      /* I = 36 */
(PID.TID 0000.0001)                 2.216367828252819E+05,      /* I = 37 */
(PID.TID 0000.0001)                 2.363029564123586E+05,      /* I = 38 */
(PID.TID 0000.0001)                 2.489113743322025E+05,      /* I = 39 */
(PID.TID 0000.0001)                 2.598293319150326E+05,      /* I = 40 */
(PID.TID 0000.0001)                 2.692787333338535E+05,      /* I = 41 */
(PID.TID 0000.0001)                 2.773972106720365E+05,      /* I = 42 */
(PID.TID 0000.0001)                 2.842706922224558E+05,      /* I = 43 */
(PID.TID 0000.0001)                 2.899523122489404E+05,      /* I = 44 */
(PID.TID 0000.0001)                 2.944741346384699E+05,      /* I = 45 */
(PID.TID 0000.0001)                 2.978547649292580E+05,      /* I = 46 */
(PID.TID 0000.0001)                 3.001044073506459E+05,      /* I = 47 */
(PID.TID 0000.0001)     2 @  3.012281885409289E+05,             /* I = 48: 49 */
(PID.TID 0000.0001)                 3.001044073506459E+05,      /* I = 50 */
(PID.TID 0000.0001)                 2.978547649292580E+05,      /* I = 51 */
(PID.TID 0000.0001)                 2.944741346384699E+05,      /* I = 52 */
(PID.TID 0000.0001)                 2.899523122489404E+05,      /* I = 53 */
(PID.TID 0000.0001)                 2.842706922224558E+05,      /* I = 54 */
(PID.TID 0000.0001)                 2.773972106720365E+05,      /* I = 55 */
(PID.TID 0000.0001)                 2.692787333338535E+05,      /* I = 56 */
(PID.TID 0000.0001)                 2.598293319150326E+05,      /* I = 57 */
(PID.TID 0000.0001)                 2.489113743322025E+05,      /* I = 58 */
(PID.TID 0000.0001)                 2.363029564123586E+05,      /* I = 59 */
(PID.TID 0000.0001)                 2.216367828252819E+05,      /* I = 60 */
(PID.TID 0000.0001)                 2.042717761866506E+05,      /* I = 61 */
(PID.TID 0000.0001)                 1.829777599966776E+05,      /* I = 62 */
(PID.TID 0000.0001)                 1.549545757850771E+05,      /* I = 63 */
(PID.TID 0000.0001)     2 @  1.135373000692312E+05,             /* I = 64: 65 */
(PID.TID 0000.0001)                 1.549545757850771E+05,      /* I = 66 */
(PID.TID 0000.0001)                 1.829777599966776E+05,      /* I = 67 */
(PID.TID 0000.0001)                 2.042717761866506E+05,      /* I = 68 */
(PID.TID 0000.0001)                 2.216367828252819E+05,      /* I = 69 */
(PID.TID 0000.0001)                 2.363029564123586E+05,      /* I = 70 */
(PID.TID 0000.0001)                 2.489113743322025E+05,      /* I = 71 */
(PID.TID 0000.0001)                 2.598293319150326E+05,      /* I = 72 */
(PID.TID 0000.0001)                 2.692787333338535E+05,      /* I = 73 */
(PID.TID 0000.0001)                 2.773972106720365E+05,      /* I = 74 */
(PID.TID 0000.0001)                 2.842706922224558E+05,      /* I = 75 */
(PID.TID 0000.0001)                 2.899523122489404E+05,      /* I = 76 */
(PID.TID 0000.0001)                 2.944741346384699E+05,      /* I = 77 */
(PID.TID 0000.0001)                 2.978547649292580E+05,      /* I = 78 */
(PID.TID 0000.0001)                 3.001044073506459E+05,      /* I = 79 */
(PID.TID 0000.0001)     2 @  3.012281885409289E+05,             /* I = 80: 81 */
(PID.TID 0000.0001)                 3.001044073506459E+05,      /* I = 82 */
(PID.TID 0000.0001)                 2.978547649292580E+05,      /* I = 83 */
(PID.TID 0000.0001)                 2.944741346384699E+05,      /* I = 84 */
(PID.TID 0000.0001)                 2.899523122489404E+05,      /* I = 85 */
(PID.TID 0000.0001)                 2.842706922224558E+05,      /* I = 86 */
(PID.TID 0000.0001)                 2.773972106720365E+05,      /* I = 87 */
(PID.TID 0000.0001)                 2.692787333338535E+05,      /* I = 88 */
(PID.TID 0000.0001)                 2.598293319150326E+05,      /* I = 89 */
(PID.TID 0000.0001)                 2.489113743322025E+05,      /* I = 90 */
(PID.TID 0000.0001)                 2.363029564123586E+05,      /* I = 91 */
(PID.TID 0000.0001)                 2.216367828252819E+05,      /* I = 92 */
(PID.TID 0000.0001)                 2.042717761866506E+05,      /* I = 93 */
(PID.TID 0000.0001)                 1.829777599966776E+05,      /* I = 94 */
(PID.TID 0000.0001)                 1.549545757850771E+05,      /* I = 95 */
(PID.TID 0000.0001)     2 @  1.135373000692312E+05,             /* I = 96: 97 */
(PID.TID 0000.0001)                 1.549545757850771E+05,      /* I = 98 */
(PID.TID 0000.0001)                 1.829777599966776E+05,      /* I = 99 */
(PID.TID 0000.0001)                 2.042717761866506E+05,      /* I =100 */
(PID.TID 0000.0001)                 2.216367828252819E+05,      /* I =101 */
(PID.TID 0000.0001)                 2.363029564123586E+05,      /* I =102 */
(PID.TID 0000.0001)                 2.489113743322025E+05,      /* I =103 */
(PID.TID 0000.0001)                 2.598293319150326E+05,      /* I =104 */
(PID.TID 0000.0001)                 2.692787333338535E+05,      /* I =105 */
(PID.TID 0000.0001)                 2.773972106720365E+05,      /* I =106 */
(PID.TID 0000.0001)                 2.842706922224558E+05,      /* I =107 */
(PID.TID 0000.0001)                 2.899523122489404E+05,      /* I =108 */
(PID.TID 0000.0001)                 2.944741346384699E+05,      /* I =109 */
(PID.TID 0000.0001)                 2.978547649292580E+05,      /* I =110 */
(PID.TID 0000.0001)                 3.001044073506459E+05,      /* I =111 */
(PID.TID 0000.0001)     2 @  3.012281885409289E+05,             /* I =112:113 */
(PID.TID 0000.0001)                 3.001044073506459E+05,      /* I =114 */
(PID.TID 0000.0001)                 2.978547649292580E+05,      /* I =115 */
(PID.TID 0000.0001)                 2.944741346384699E+05,      /* I =116 */
(PID.TID 0000.0001)                 2.899523122489404E+05,      /* I =117 */
(PID.TID 0000.0001)                 2.842706922224558E+05,      /* I =118 */
(PID.TID 0000.0001)                 2.773972106720365E+05,      /* I =119 */
(PID.TID 0000.0001)                 2.692787333338535E+05,      /* I =120 */
(PID.TID 0000.0001)                 2.598293319150326E+05,      /* I =121 */
(PID.TID 0000.0001)                 2.489113743322025E+05,      /* I =122 */
(PID.TID 0000.0001)                 2.363029564123586E+05,      /* I =123 */
(PID.TID 0000.0001)                 2.216367828252819E+05,      /* I =124 */
(PID.TID 0000.0001)                 2.042717761866506E+05,      /* I =125 */
(PID.TID 0000.0001)                 1.829777599966776E+05,      /* I =126 */
(PID.TID 0000.0001)                 1.549545757850771E+05,      /* I =127 */
(PID.TID 0000.0001)     2 @  1.135373000692312E+05,             /* I =128:129 */
(PID.TID 0000.0001)                 1.549545757850771E+05,      /* I =130 */
(PID.TID 0000.0001)                 1.829777599966776E+05,      /* I =131 */
(PID.TID 0000.0001)                 2.042717761866506E+05,      /* I =132 */
(PID.TID 0000.0001)                 2.216367828252819E+05,      /* I =133 */
(PID.TID 0000.0001)                 2.363029564123586E+05,      /* I =134 */
(PID.TID 0000.0001)                 2.489113743322025E+05,      /* I =135 */
(PID.TID 0000.0001)                 2.598293319150326E+05,      /* I =136 */
(PID.TID 0000.0001)                 2.692787333338535E+05,      /* I =137 */
(PID.TID 0000.0001)                 2.773972106720365E+05,      /* I =138 */
(PID.TID 0000.0001)                 2.842706922224558E+05,      /* I =139 */
(PID.TID 0000.0001)                 2.899523122489404E+05,      /* I =140 */
(PID.TID 0000.0001)                 2.944741346384699E+05,      /* I =141 */
(PID.TID 0000.0001)                 2.978547649292580E+05,      /* I =142 */
(PID.TID 0000.0001)                 3.001044073506459E+05,      /* I =143 */
(PID.TID 0000.0001)     2 @  3.012281885409289E+05,             /* I =144:145 */
(PID.TID 0000.0001)                 3.001044073506459E+05,      /* I =146 */
(PID.TID 0000.0001)                 2.978547649292580E+05,      /* I =147 */
(PID.TID 0000.0001)                 2.944741346384699E+05,      /* I =148 */
(PID.TID 0000.0001)                 2.899523122489404E+05,      /* I =149 */
(PID.TID 0000.0001)                 2.842706922224558E+05,      /* I =150 */
(PID.TID 0000.0001)                 2.773972106720365E+05,      /* I =151 */
(PID.TID 0000.0001)                 2.692787333338535E+05,      /* I =152 */
(PID.TID 0000.0001)                 2.598293319150326E+05,      /* I =153 */
(PID.TID 0000.0001)                 2.489113743322025E+05,      /* I =154 */
(PID.TID 0000.0001)                 2.363029564123586E+05,      /* I =155 */
(PID.TID 0000.0001)                 2.216367828252819E+05,      /* I =156 */
(PID.TID 0000.0001)                 2.042717761866506E+05,      /* I =157 */
(PID.TID 0000.0001)                 1.829777599966776E+05,      /* I =158 */
(PID.TID 0000.0001)                 1.549545757850771E+05,      /* I =159 */
(PID.TID 0000.0001)     2 @  1.135373000692312E+05,             /* I =160:161 */
(PID.TID 0000.0001)                 1.549545757850771E+05,      /* I =162 */
(PID.TID 0000.0001)                 1.829777599966776E+05,      /* I =163 */
(PID.TID 0000.0001)                 2.042717761866506E+05,      /* I =164 */
(PID.TID 0000.0001)                 2.216367828252819E+05,      /* I =165 */
(PID.TID 0000.0001)                 2.363029564123586E+05,      /* I =166 */
(PID.TID 0000.0001)                 2.489113743322025E+05,      /* I =167 */
(PID.TID 0000.0001)                 2.598293319150326E+05,      /* I =168 */
(PID.TID 0000.0001)                 2.692787333338535E+05,      /* I =169 */
(PID.TID 0000.0001)                 2.773972106720365E+05,      /* I =170 */
(PID.TID 0000.0001)                 2.842706922224558E+05,      /* I =171 */
(PID.TID 0000.0001)                 2.899523122489404E+05,      /* I =172 */
(PID.TID 0000.0001)                 2.944741346384699E+05,      /* I =173 */
(PID.TID 0000.0001)                 2.978547649292580E+05,      /* I =174 */
(PID.TID 0000.0001)                 3.001044073506459E+05,      /* I =175 */
(PID.TID 0000.0001)     2 @  3.012281885409289E+05,             /* I =176:177 */
(PID.TID 0000.0001)                 3.001044073506459E+05,      /* I =178 */
(PID.TID 0000.0001)                 2.978547649292580E+05,      /* I =179 */
(PID.TID 0000.0001)                 2.944741346384699E+05,      /* I =180 */
(PID.TID 0000.0001)                 2.899523122489404E+05,      /* I =181 */
(PID.TID 0000.0001)                 2.842706922224558E+05,      /* I =182 */
(PID.TID 0000.0001)                 2.773972106720365E+05,      /* I =183 */
(PID.TID 0000.0001)                 2.692787333338535E+05,      /* I =184 */
(PID.TID 0000.0001)                 2.598293319150326E+05,      /* I =185 */
(PID.TID 0000.0001)                 2.489113743322025E+05,      /* I =186 */
(PID.TID 0000.0001)                 2.363029564123586E+05,      /* I =187 */
(PID.TID 0000.0001)                 2.216367828252819E+05,      /* I =188 */
(PID.TID 0000.0001)                 2.042717761866506E+05,      /* I =189 */
(PID.TID 0000.0001)                 1.829777599966776E+05,      /* I =190 */
(PID.TID 0000.0001)                 1.549545757850771E+05,      /* I =191 */
(PID.TID 0000.0001)                 1.135373000692312E+05       /* I =192 */
(PID.TID 0000.0001)     ;
(PID.TID 0000.0001) dyC =  /* dyC(1,:,1,:) ( units: m ) */
(PID.TID 0000.0001)                 1.135373000692312E+05,      /* J =  1 */
(PID.TID 0000.0001)                 1.391343389937106E+05,      /* J =  2 */
(PID.TID 0000.0001)                 1.709574999026267E+05,      /* J =  3 */
(PID.TID 0000.0001)                 1.946503699269892E+05,      /* J =  4 */
(PID.TID 0000.0001)                 2.135964483342134E+05,      /* J =  5 */
(PID.TID 0000.0001)                 2.294195678257306E+05,      /* J =  6 */
(PID.TID 0000.0001)                 2.429464709770498E+05,      /* J =  7 */
(PID.TID 0000.0001)                 2.546408290696998E+05,      /* J =  8 */
(PID.TID 0000.0001)                 2.647791839299727E+05,      /* J =  9 */
(PID.TID 0000.0001)                 2.735321911346108E+05,      /* J = 10 */
(PID.TID 0000.0001)                 2.810065951609633E+05,      /* J = 11 */
(PID.TID 0000.0001)                 2.872689479506990E+05,      /* J = 12 */
(PID.TID 0000.0001)                 2.923599955312932E+05,      /* J = 13 */
(PID.TID 0000.0001)                 2.963038832565530E+05,      /* J = 14 */
(PID.TID 0000.0001)                 2.991142470004740E+05,      /* J = 15 */
(PID.TID 0000.0001)                 3.007982711627968E+05,      /* J = 16 */
(PID.TID 0000.0001)                 3.013593857228136E+05,      /* J = 17 */
(PID.TID 0000.0001)                 3.007982711627968E+05,      /* J = 18 */
(PID.TID 0000.0001)                 2.991142470004740E+05,      /* J = 19 */
(PID.TID 0000.0001)                 2.963038832565530E+05,      /* J = 20 */
(PID.TID 0000.0001)                 2.923599955312932E+05,      /* J = 21 */
(PID.TID 0000.0001)                 2.872689479506990E+05,      /* J = 22 */
(PID.TID 0000.0001)                 2.810065951609633E+05,      /* J = 23 */
(PID.TID 0000.0001)                 2.735321911346108E+05,      /* J = 24 */
(PID.TID 0000.0001)                 2.647791839299727E+05,      /* J = 25 */
(PID.TID 0000.0001)                 2.546408290696998E+05,      /* J = 26 */
(PID.TID 0000.0001)                 2.429464709770498E+05,      /* J = 27 */
(PID.TID 0000.0001)                 2.294195678257306E+05,      /* J = 28 */
(PID.TID 0000.0001)                 2.135964483342134E+05,      /* J = 29 */
(PID.TID 0000.0001)                 1.946503699269892E+05,      /* J = 30 */
(PID.TID 0000.0001)                 1.709574999026267E+05,      /* J = 31 */
(PID.TID 0000.0001)                 1.391343389937106E+05       /* J = 32 */
(PID.TID 0000.0001)     ;
(PID.TID 0000.0001) dxV =  /* dxV(:,1,:,1) ( units: m ) */
(PID.TID 0000.0001)                 8.015229982413632E+04,      /* I =  1 */
(PID.TID 0000.0001)                 1.333130744933864E+05,      /* I =  2 */
(PID.TID 0000.0001)                 1.691744868129062E+05,      /* I =  3 */
(PID.TID 0000.0001)                 1.937548202849060E+05,      /* I =  4 */
(PID.TID 0000.0001)                 2.130490056267208E+05,      /* I =  5 */
(PID.TID 0000.0001)                 2.290479919481738E+05,      /* I =  6 */
(PID.TID 0000.0001)                 2.426774358027004E+05,      /* I =  7 */
(PID.TID 0000.0001)                 2.544372984215561E+05,      /* I =  8 */
(PID.TID 0000.0001)                 2.646201463834826E+05,      /* I =  9 */
(PID.TID 0000.0001)                 2.734046499619031E+05,      /* I = 10 */
(PID.TID 0000.0001)                 2.809019351693761E+05,      /* I = 11 */
(PID.TID 0000.0001)                 2.871811105274442E+05,      /* I = 12 */
(PID.TID 0000.0001)                 2.922844849381675E+05,      /* I = 13 */
(PID.TID 0000.0001)                 2.962371870847826E+05,      /* I = 14 */
(PID.TID 0000.0001)                 2.990534755671296E+05,      /* I = 15 */
(PID.TID 0000.0001)                 3.007409169495504E+05,      /* I = 16 */
(PID.TID 0000.0001)                 3.013031486919771E+05,      /* I = 17 */
(PID.TID 0000.0001)                 3.007409169495504E+05,      /* I = 18 */
(PID.TID 0000.0001)                 2.990534755671296E+05,      /* I = 19 */
(PID.TID 0000.0001)                 2.962371870847826E+05,      /* I = 20 */
(PID.TID 0000.0001)                 2.922844849381675E+05,      /* I = 21 */
(PID.TID 0000.0001)                 2.871811105274442E+05,      /* I = 22 */
(PID.TID 0000.0001)                 2.809019351693761E+05,      /* I = 23 */
(PID.TID 0000.0001)                 2.734046499619031E+05,      /* I = 24 */
(PID.TID 0000.0001)                 2.646201463834826E+05,      /* I = 25 */
(PID.TID 0000.0001)                 2.544372984215561E+05,      /* I = 26 */
(PID.TID 0000.0001)                 2.426774358027004E+05,      /* I = 27 */
(PID.TID 0000.0001)                 2.290479919481738E+05,      /* I = 28 */
(PID.TID 0000.0001)                 2.130490056267208E+05,      /* I = 29 */
(PID.TID 0000.0001)                 1.937548202849060E+05,      /* I = 30 */
(PID.TID 0000.0001)                 1.691744868129062E+05,      /* I = 31 */
(PID.TID 0000.0001)                 1.333130744933864E+05,      /* I = 32 */
(PID.TID 0000.0001)                 8.015229982413632E+04,      /* I = 33 */
(PID.TID 0000.0001)                 1.333130744933864E+05,      /* I = 34 */
(PID.TID 0000.0001)                 1.691744868129062E+05,      /* I = 35 */
(PID.TID 0000.0001)                 1.937548202849060E+05,      /* I = 36 */
(PID.TID 0000.0001)                 2.130490056267208E+05,      /* I = 37 */
(PID.TID 0000.0001)                 2.290479919481738E+05,      /* I = 38 */
(PID.TID 0000.0001)                 2.426774358027004E+05,      /* I = 39 */
(PID.TID 0000.0001)                 2.544372984215561E+05,      /* I = 40 */
(PID.TID 0000.0001)                 2.646201463834826E+05,      /* I = 41 */
(PID.TID 0000.0001)                 2.734046499619031E+05,      /* I = 42 */
(PID.TID 0000.0001)                 2.809019351693761E+05,      /* I = 43 */
(PID.TID 0000.0001)                 2.871811105274442E+05,      /* I = 44 */
(PID.TID 0000.0001)                 2.922844849381675E+05,      /* I = 45 */
(PID.TID 0000.0001)                 2.962371870847826E+05,      /* I = 46 */
(PID.TID 0000.0001)                 2.990534755671296E+05,      /* I = 47 */
(PID.TID 0000.0001)                 3.007409169495504E+05,      /* I = 48 */
(PID.TID 0000.0001)                 3.013031486919771E+05,      /* I = 49 */
(PID.TID 0000.0001)                 3.007409169495504E+05,      /* I = 50 */
(PID.TID 0000.0001)                 2.990534755671296E+05,      /* I = 51 */
(PID.TID 0000.0001)                 2.962371870847826E+05,      /* I = 52 */
(PID.TID 0000.0001)                 2.922844849381675E+05,      /* I = 53 */
(PID.TID 0000.0001)                 2.871811105274442E+05,      /* I = 54 */
(PID.TID 0000.0001)                 2.809019351693761E+05,      /* I = 55 */
(PID.TID 0000.0001)                 2.734046499619031E+05,      /* I = 56 */
(PID.TID 0000.0001)                 2.646201463834826E+05,      /* I = 57 */
(PID.TID 0000.0001)                 2.544372984215561E+05,      /* I = 58 */
(PID.TID 0000.0001)                 2.426774358027004E+05,      /* I = 59 */
(PID.TID 0000.0001)                 2.290479919481738E+05,      /* I = 60 */
(PID.TID 0000.0001)                 2.130490056267208E+05,      /* I = 61 */
(PID.TID 0000.0001)                 1.937548202849060E+05,      /* I = 62 */
(PID.TID 0000.0001)                 1.691744868129062E+05,      /* I = 63 */
(PID.TID 0000.0001)                 1.333130744933864E+05,      /* I = 64 */
(PID.TID 0000.0001)                 8.015229982413632E+04,      /* I = 65 */
(PID.TID 0000.0001)                 1.333130744933864E+05,      /* I = 66 */
(PID.TID 0000.0001)                 1.691744868129062E+05,      /* I = 67 */
(PID.TID 0000.0001)                 1.937548202849060E+05,      /* I = 68 */
(PID.TID 0000.0001)                 2.130490056267208E+05,      /* I = 69 */
(PID.TID 0000.0001)                 2.290479919481738E+05,      /* I = 70 */
(PID.TID 0000.0001)                 2.426774358027004E+05,      /* I = 71 */
(PID.TID 0000.0001)                 2.544372984215561E+05,      /* I = 72 */
(PID.TID 0000.0001)                 2.646201463834826E+05,      /* I = 73 */
(PID.TID 0000.0001)                 2.734046499619031E+05,      /* I = 74 */
(PID.TID 0000.0001)                 2.809019351693761E+05,      /* I = 75 */
(PID.TID 0000.0001)                 2.871811105274442E+05,      /* I = 76 */
(PID.TID 0000.0001)                 2.922844849381675E+05,      /* I = 77 */
(PID.TID 0000.0001)                 2.962371870847826E+05,      /* I = 78 */
(PID.TID 0000.0001)                 2.990534755671296E+05,      /* I = 79 */
(PID.TID 0000.0001)                 3.007409169495504E+05,      /* I = 80 */
(PID.TID 0000.0001)                 3.013031486919771E+05,      /* I = 81 */
(PID.TID 0000.0001)                 3.007409169495504E+05,      /* I = 82 */
(PID.TID 0000.0001)                 2.990534755671296E+05,      /* I = 83 */
(PID.TID 0000.0001)                 2.962371870847826E+05,      /* I = 84 */
(PID.TID 0000.0001)                 2.922844849381675E+05,      /* I = 85 */
(PID.TID 0000.0001)                 2.871811105274442E+05,      /* I = 86 */
(PID.TID 0000.0001)                 2.809019351693761E+05,      /* I = 87 */
(PID.TID 0000.0001)                 2.734046499619031E+05,      /* I = 88 */
(PID.TID 0000.0001)                 2.646201463834826E+05,      /* I = 89 */
(PID.TID 0000.0001)                 2.544372984215561E+05,      /* I = 90 */
(PID.TID 0000.0001)                 2.426774358027004E+05,      /* I = 91 */
(PID.TID 0000.0001)                 2.290479919481738E+05,      /* I = 92 */
(PID.TID 0000.0001)                 2.130490056267208E+05,      /* I = 93 */
(PID.TID 0000.0001)                 1.937548202849060E+05,      /* I = 94 */
(PID.TID 0000.0001)                 1.691744868129062E+05,      /* I = 95 */
(PID.TID 0000.0001)                 1.333130744933864E+05,      /* I = 96 */
(PID.TID 0000.0001)                 8.015229982413632E+04,      /* I = 97 */
(PID.TID 0000.0001)                 1.333130744933864E+05,      /* I = 98 */
(PID.TID 0000.0001)                 1.691744868129062E+05,      /* I = 99 */
(PID.TID 0000.0001)                 1.937548202849060E+05,      /* I =100 */
(PID.TID 0000.0001)                 2.130490056267208E+05,      /* I =101 */
(PID.TID 0000.0001)                 2.290479919481738E+05,      /* I =102 */
(PID.TID 0000.0001)                 2.426774358027004E+05,      /* I =103 */
(PID.TID 0000.0001)                 2.544372984215561E+05,      /* I =104 */
(PID.TID 0000.0001)                 2.646201463834826E+05,      /* I =105 */
(PID.TID 0000.0001)                 2.734046499619031E+05,      /* I =106 */
(PID.TID 0000.0001)                 2.809019351693761E+05,      /* I =107 */
(PID.TID 0000.0001)                 2.871811105274442E+05,      /* I =108 */
(PID.TID 0000.0001)                 2.922844849381675E+05,      /* I =109 */
(PID.TID 0000.0001)                 2.962371870847826E+05,      /* I =110 */
(PID.TID 0000.0001)                 2.990534755671296E+05,      /* I =111 */
(PID.TID 0000.0001)                 3.007409169495504E+05,      /* I =112 */
(PID.TID 0000.0001)                 3.013031486919771E+05,      /* I =113 */
(PID.TID 0000.0001)                 3.007409169495504E+05,      /* I =114 */
(PID.TID 0000.0001)                 2.990534755671296E+05,      /* I =115 */
(PID.TID 0000.0001)                 2.962371870847826E+05,      /* I =116 */
(PID.TID 0000.0001)                 2.922844849381675E+05,      /* I =117 */
(PID.TID 0000.0001)                 2.871811105274442E+05,      /* I =118 */
(PID.TID 0000.0001)                 2.809019351693761E+05,      /* I =119 */
(PID.TID 0000.0001)                 2.734046499619031E+05,      /* I =120 */
(PID.TID 0000.0001)                 2.646201463834826E+05,      /* I =121 */
(PID.TID 0000.0001)                 2.544372984215561E+05,      /* I =122 */
(PID.TID 0000.0001)                 2.426774358027004E+05,      /* I =123 */
(PID.TID 0000.0001)                 2.290479919481738E+05,      /* I =124 */
(PID.TID 0000.0001)                 2.130490056267208E+05,      /* I =125 */
(PID.TID 0000.0001)                 1.937548202849060E+05,      /* I =126 */
(PID.TID 0000.0001)                 1.691744868129062E+05,      /* I =127 */
(PID.TID 0000.0001)                 1.333130744933864E+05,      /* I =128 */
(PID.TID 0000.0001)                 8.015229982413632E+04,      /* I =129 */
(PID.TID 0000.0001)                 1.333130744933864E+05,      /* I =130 */
(PID.TID 0000.0001)                 1.691744868129062E+05,      /* I =131 */
(PID.TID 0000.0001)                 1.937548202849060E+05,      /* I =132 */
(PID.TID 0000.0001)                 2.130490056267208E+05,      /* I =133 */
(PID.TID 0000.0001)                 2.290479919481738E+05,      /* I =134 */
(PID.TID 0000.0001)                 2.426774358027004E+05,      /* I =135 */
(PID.TID 0000.0001)                 2.544372984215561E+05,      /* I =136 */
(PID.TID 0000.0001)                 2.646201463834826E+05,      /* I =137 */
(PID.TID 0000.0001)                 2.734046499619031E+05,      /* I =138 */
(PID.TID 0000.0001)                 2.809019351693761E+05,      /* I =139 */
(PID.TID 0000.0001)                 2.871811105274442E+05,      /* I =140 */
(PID.TID 0000.0001)                 2.922844849381675E+05,      /* I =141 */
(PID.TID 0000.0001)                 2.962371870847826E+05,      /* I =142 */
(PID.TID 0000.0001)                 2.990534755671296E+05,      /* I =143 */
(PID.TID 0000.0001)                 3.007409169495504E+05,      /* I =144 */
(PID.TID 0000.0001)                 3.013031486919771E+05,      /* I =145 */
(PID.TID 0000.0001)                 3.007409169495504E+05,      /* I =146 */
(PID.TID 0000.0001)                 2.990534755671296E+05,      /* I =147 */
(PID.TID 0000.0001)                 2.962371870847826E+05,      /* I =148 */
(PID.TID 0000.0001)                 2.922844849381675E+05,      /* I =149 */
(PID.TID 0000.0001)                 2.871811105274442E+05,      /* I =150 */
(PID.TID 0000.0001)                 2.809019351693761E+05,      /* I =151 */
(PID.TID 0000.0001)                 2.734046499619031E+05,      /* I =152 */
(PID.TID 0000.0001)                 2.646201463834826E+05,      /* I =153 */
(PID.TID 0000.0001)                 2.544372984215561E+05,      /* I =154 */
(PID.TID 0000.0001)                 2.426774358027004E+05,      /* I =155 */
(PID.TID 0000.0001)                 2.290479919481738E+05,      /* I =156 */
(PID.TID 0000.0001)                 2.130490056267208E+05,      /* I =157 */
(PID.TID 0000.0001)                 1.937548202849060E+05,      /* I =158 */
(PID.TID 0000.0001)                 1.691744868129062E+05,      /* I =159 */
(PID.TID 0000.0001)                 1.333130744933864E+05,      /* I =160 */
(PID.TID 0000.0001)                 8.015229982413632E+04,      /* I =161 */
(PID.TID 0000.0001)                 1.333130744933864E+05,      /* I =162 */
(PID.TID 0000.0001)                 1.691744868129062E+05,      /* I =163 */
(PID.TID 0000.0001)                 1.937548202849060E+05,      /* I =164 */
(PID.TID 0000.0001)                 2.130490056267208E+05,      /* I =165 */
(PID.TID 0000.0001)                 2.290479919481738E+05,      /* I =166 */
(PID.TID 0000.0001)                 2.426774358027004E+05,      /* I =167 */
(PID.TID 0000.0001)                 2.544372984215561E+05,      /* I =168 */
(PID.TID 0000.0001)                 2.646201463834826E+05,      /* I =169 */
(PID.TID 0000.0001)                 2.734046499619031E+05,      /* I =170 */
(PID.TID 0000.0001)                 2.809019351693761E+05,      /* I =171 */
(PID.TID 0000.0001)                 2.871811105274442E+05,      /* I =172 */
(PID.TID 0000.0001)                 2.922844849381675E+05,      /* I =173 */
(PID.TID 0000.0001)                 2.962371870847826E+05,      /* I =174 */
(PID.TID 0000.0001)                 2.990534755671296E+05,      /* I =175 */
(PID.TID 0000.0001)                 3.007409169495504E+05,      /* I =176 */
(PID.TID 0000.0001)                 3.013031486919771E+05,      /* I =177 */
(PID.TID 0000.0001)                 3.007409169495504E+05,      /* I =178 */
(PID.TID 0000.0001)                 2.990534755671296E+05,      /* I =179 */
(PID.TID 0000.0001)                 2.962371870847826E+05,      /* I =180 */
(PID.TID 0000.0001)                 2.922844849381675E+05,      /* I =181 */
(PID.TID 0000.0001)                 2.871811105274442E+05,      /* I =182 */
(PID.TID 0000.0001)                 2.809019351693761E+05,      /* I =183 */
(PID.TID 0000.0001)                 2.734046499619031E+05,      /* I =184 */
(PID.TID 0000.0001)                 2.646201463834826E+05,      /* I =185 */
(PID.TID 0000.0001)                 2.544372984215561E+05,      /* I =186 */
(PID.TID 0000.0001)                 2.426774358027004E+05,      /* I =187 */
(PID.TID 0000.0001)                 2.290479919481738E+05,      /* I =188 */
(PID.TID 0000.0001)                 2.130490056267208E+05,      /* I =189 */
(PID.TID 0000.0001)                 1.937548202849060E+05,      /* I =190 */
(PID.TID 0000.0001)                 1.691744868129062E+05,      /* I =191 */
(PID.TID 0000.0001)                 1.333130744933864E+05       /* I =192 */
(PID.TID 0000.0001)     ;
(PID.TID 0000.0001) dxV =  /* dxV(1,:,1,:) ( units: m ) */
(PID.TID 0000.0001)                 8.015229982413632E+04,      /* J =  1 */
(PID.TID 0000.0001)                 1.362652340208229E+05,      /* J =  2 */
(PID.TID 0000.0001)                 1.701080315742101E+05,      /* J =  3 */
(PID.TID 0000.0001)                 1.942331448101592E+05,      /* J =  4 */
(PID.TID 0000.0001)                 2.133486626971531E+05,      /* J =  5 */
(PID.TID 0000.0001)                 2.292584591272880E+05,      /* J =  6 */
(PID.TID 0000.0001)                 2.428369969078989E+05,      /* J =  7 */
(PID.TID 0000.0001)                 2.545652950875683E+05,      /* J =  8 */
(PID.TID 0000.0001)                 2.647274964828302E+05,      /* J =  9 */
(PID.TID 0000.0001)                 2.734980225206389E+05,      /* J = 10 */
(PID.TID 0000.0001)                 2.809856491525217E+05,      /* J = 11 */
(PID.TID 0000.0001)                 2.872580915202295E+05,      /* J = 12 */
(PID.TID 0000.0001)                 2.923567890694162E+05,      /* J = 13 */
(PID.TID 0000.0001)                 2.963063101754721E+05,      /* J = 14 */
(PID.TID 0000.0001)                 2.991205495886625E+05,      /* J = 15 */
(PID.TID 0000.0001)                 3.008068453676764E+05,      /* J = 16 */
(PID.TID 0000.0001)                 3.013686170436881E+05,      /* J = 17 */
(PID.TID 0000.0001)                 3.008068453676764E+05,      /* J = 18 */
(PID.TID 0000.0001)                 2.991205495886625E+05,      /* J = 19 */
(PID.TID 0000.0001)                 2.963063101754721E+05,      /* J = 20 */
(PID.TID 0000.0001)                 2.923567890694162E+05,      /* J = 21 */
(PID.TID 0000.0001)                 2.872580915202295E+05,      /* J = 22 */
(PID.TID 0000.0001)                 2.809856491525217E+05,      /* J = 23 */
(PID.TID 0000.0001)                 2.734980225206389E+05,      /* J = 24 */
(PID.TID 0000.0001)                 2.647274964828302E+05,      /* J = 25 */
(PID.TID 0000.0001)                 2.545652950875683E+05,      /* J = 26 */
(PID.TID 0000.0001)                 2.428369969078989E+05,      /* J = 27 */
(PID.TID 0000.0001)                 2.292584591272880E+05,      /* J = 28 */
(PID.TID 0000.0001)                 2.133486626971531E+05,      /* J = 29 */
(PID.TID 0000.0001)                 1.942331448101592E+05,      /* J = 30 */
(PID.TID 0000.0001)                 1.701080315742101E+05,      /* J = 31 */
(PID.TID 0000.0001)                 1.362652340208229E+05       /* J = 32 */
(PID.TID 0000.0001)     ;
(PID.TID 0000.0001) dyU =  /* dyU(:,1,:,1) ( units: m ) */
(PID.TID 0000.0001)                 8.015229982413632E+04,      /* I =  1 */
(PID.TID 0000.0001)                 1.362652340208229E+05,      /* I =  2 */
(PID.TID 0000.0001)                 1.701080315742101E+05,      /* I =  3 */
(PID.TID 0000.0001)                 1.942331448101592E+05,      /* I =  4 */
(PID.TID 0000.0001)                 2.133486626971531E+05,      /* I =  5 */
(PID.TID 0000.0001)                 2.292584591272880E+05,      /* I =  6 */
(PID.TID 0000.0001)                 2.428369969078989E+05,      /* I =  7 */
(PID.TID 0000.0001)                 2.545652950875683E+05,      /* I =  8 */
(PID.TID 0000.0001)                 2.647274964828302E+05,      /* I =  9 */
(PID.TID 0000.0001)                 2.734980225206389E+05,      /* I = 10 */
(PID.TID 0000.0001)                 2.809856491525217E+05,      /* I = 11 */
(PID.TID 0000.0001)                 2.872580915202295E+05,      /* I = 12 */
(PID.TID 0000.0001)                 2.923567890694162E+05,      /* I = 13 */
(PID.TID 0000.0001)                 2.963063101754721E+05,      /* I = 14 */
(PID.TID 0000.0001)                 2.991205495886625E+05,      /* I = 15 */
(PID.TID 0000.0001)                 3.008068453676764E+05,      /* I = 16 */
(PID.TID 0000.0001)                 3.013686170436881E+05,      /* I = 17 */
(PID.TID 0000.0001)                 3.008068453676764E+05,      /* I = 18 */
(PID.TID 0000.0001)                 2.991205495886625E+05,      /* I = 19 */
(PID.TID 0000.0001)                 2.963063101754721E+05,      /* I = 20 */
(PID.TID 0000.0001)                 2.923567890694162E+05,      /* I = 21 */
(PID.TID 0000.0001)                 2.872580915202295E+05,      /* I = 22 */
(PID.TID 0000.0001)                 2.809856491525217E+05,      /* I = 23 */
(PID.TID 0000.0001)                 2.734980225206389E+05,      /* I = 24 */
(PID.TID 0000.0001)                 2.647274964828302E+05,      /* I = 25 */
(PID.TID 0000.0001)                 2.545652950875683E+05,      /* I = 26 */
(PID.TID 0000.0001)                 2.428369969078989E+05,      /* I = 27 */
(PID.TID 0000.0001)                 2.292584591272880E+05,      /* I = 28 */
(PID.TID 0000.0001)                 2.133486626971531E+05,      /* I = 29 */
(PID.TID 0000.0001)                 1.942331448101592E+05,      /* I = 30 */
(PID.TID 0000.0001)                 1.701080315742101E+05,      /* I = 31 */
(PID.TID 0000.0001)                 1.362652340208229E+05,      /* I = 32 */
(PID.TID 0000.0001)                 8.015229982413632E+04,      /* I = 33 */
(PID.TID 0000.0001)                 1.362652340208229E+05,      /* I = 34 */
(PID.TID 0000.0001)                 1.701080315742101E+05,      /* I = 35 */
(PID.TID 0000.0001)                 1.942331448101592E+05,      /* I = 36 */
(PID.TID 0000.0001)                 2.133486626971531E+05,      /* I = 37 */
(PID.TID 0000.0001)                 2.292584591272880E+05,      /* I = 38 */
(PID.TID 0000.0001)                 2.428369969078989E+05,      /* I = 39 */
(PID.TID 0000.0001)                 2.545652950875683E+05,      /* I = 40 */
(PID.TID 0000.0001)                 2.647274964828302E+05,      /* I = 41 */
(PID.TID 0000.0001)                 2.734980225206389E+05,      /* I = 42 */
(PID.TID 0000.0001)                 2.809856491525217E+05,      /* I = 43 */
(PID.TID 0000.0001)                 2.872580915202295E+05,      /* I = 44 */
(PID.TID 0000.0001)                 2.923567890694162E+05,      /* I = 45 */
(PID.TID 0000.0001)                 2.963063101754721E+05,      /* I = 46 */
(PID.TID 0000.0001)                 2.991205495886625E+05,      /* I = 47 */
(PID.TID 0000.0001)                 3.008068453676764E+05,      /* I = 48 */
(PID.TID 0000.0001)                 3.013686170436881E+05,      /* I = 49 */
(PID.TID 0000.0001)                 3.008068453676764E+05,      /* I = 50 */
(PID.TID 0000.0001)                 2.991205495886625E+05,      /* I = 51 */
(PID.TID 0000.0001)                 2.963063101754721E+05,      /* I = 52 */
(PID.TID 0000.0001)                 2.923567890694162E+05,      /* I = 53 */
(PID.TID 0000.0001)                 2.872580915202295E+05,      /* I = 54 */
(PID.TID 0000.0001)                 2.809856491525217E+05,      /* I = 55 */
(PID.TID 0000.0001)                 2.734980225206389E+05,      /* I = 56 */
(PID.TID 0000.0001)                 2.647274964828302E+05,      /* I = 57 */
(PID.TID 0000.0001)                 2.545652950875683E+05,      /* I = 58 */
(PID.TID 0000.0001)                 2.428369969078989E+05,      /* I = 59 */
(PID.TID 0000.0001)                 2.292584591272880E+05,      /* I = 60 */
(PID.TID 0000.0001)                 2.133486626971531E+05,      /* I = 61 */
(PID.TID 0000.0001)                 1.942331448101592E+05,      /* I = 62 */
(PID.TID 0000.0001)                 1.701080315742101E+05,      /* I = 63 */
(PID.TID 0000.0001)                 1.362652340208229E+05,      /* I = 64 */
(PID.TID 0000.0001)                 8.015229982413632E+04,      /* I = 65 */
(PID.TID 0000.0001)                 1.362652340208229E+05,      /* I = 66 */
(PID.TID 0000.0001)                 1.701080315742101E+05,      /* I = 67 */
(PID.TID 0000.0001)                 1.942331448101592E+05,      /* I = 68 */
(PID.TID 0000.0001)                 2.133486626971531E+05,      /* I = 69 */
(PID.TID 0000.0001)                 2.292584591272880E+05,      /* I = 70 */
(PID.TID 0000.0001)                 2.428369969078989E+05,      /* I = 71 */
(PID.TID 0000.0001)                 2.545652950875683E+05,      /* I = 72 */
(PID.TID 0000.0001)                 2.647274964828302E+05,      /* I = 73 */
(PID.TID 0000.0001)                 2.734980225206389E+05,      /* I = 74 */
(PID.TID 0000.0001)                 2.809856491525217E+05,      /* I = 75 */
(PID.TID 0000.0001)                 2.872580915202295E+05,      /* I = 76 */
(PID.TID 0000.0001)                 2.923567890694162E+05,      /* I = 77 */
(PID.TID 0000.0001)                 2.963063101754721E+05,      /* I = 78 */
(PID.TID 0000.0001)                 2.991205495886625E+05,      /* I = 79 */
(PID.TID 0000.0001)                 3.008068453676764E+05,      /* I = 80 */
(PID.TID 0000.0001)                 3.013686170436881E+05,      /* I = 81 */
(PID.TID 0000.0001)                 3.008068453676764E+05,      /* I = 82 */
(PID.TID 0000.0001)                 2.991205495886625E+05,      /* I = 83 */
(PID.TID 0000.0001)                 2.963063101754721E+05,      /* I = 84 */
(PID.TID 0000.0001)                 2.923567890694162E+05,      /* I = 85 */
(PID.TID 0000.0001)                 2.872580915202295E+05,      /* I = 86 */
(PID.TID 0000.0001)                 2.809856491525217E+05,      /* I = 87 */
(PID.TID 0000.0001)                 2.734980225206389E+05,      /* I = 88 */
(PID.TID 0000.0001)                 2.647274964828302E+05,      /* I = 89 */
(PID.TID 0000.0001)                 2.545652950875683E+05,      /* I = 90 */
(PID.TID 0000.0001)                 2.428369969078989E+05,      /* I = 91 */
(PID.TID 0000.0001)                 2.292584591272880E+05,      /* I = 92 */
(PID.TID 0000.0001)                 2.133486626971531E+05,      /* I = 93 */
(PID.TID 0000.0001)                 1.942331448101592E+05,      /* I = 94 */
(PID.TID 0000.0001)                 1.701080315742101E+05,      /* I = 95 */
(PID.TID 0000.0001)                 1.362652340208229E+05,      /* I = 96 */
(PID.TID 0000.0001)                 8.015229982413632E+04,      /* I = 97 */
(PID.TID 0000.0001)                 1.362652340208229E+05,      /* I = 98 */
(PID.TID 0000.0001)                 1.701080315742101E+05,      /* I = 99 */
(PID.TID 0000.0001)                 1.942331448101592E+05,      /* I =100 */
(PID.TID 0000.0001)                 2.133486626971531E+05,      /* I =101 */
(PID.TID 0000.0001)                 2.292584591272880E+05,      /* I =102 */
(PID.TID 0000.0001)                 2.428369969078989E+05,      /* I =103 */
(PID.TID 0000.0001)                 2.545652950875683E+05,      /* I =104 */
(PID.TID 0000.0001)                 2.647274964828302E+05,      /* I =105 */
(PID.TID 0000.0001)                 2.734980225206389E+05,      /* I =106 */
(PID.TID 0000.0001)                 2.809856491525217E+05,      /* I =107 */
(PID.TID 0000.0001)                 2.872580915202295E+05,      /* I =108 */
(PID.TID 0000.0001)                 2.923567890694162E+05,      /* I =109 */
(PID.TID 0000.0001)                 2.963063101754721E+05,      /* I =110 */
(PID.TID 0000.0001)                 2.991205495886625E+05,      /* I =111 */
(PID.TID 0000.0001)                 3.008068453676764E+05,      /* I =112 */
(PID.TID 0000.0001)                 3.013686170436881E+05,      /* I =113 */
(PID.TID 0000.0001)                 3.008068453676764E+05,      /* I =114 */
(PID.TID 0000.0001)                 2.991205495886625E+05,      /* I =115 */
(PID.TID 0000.0001)                 2.963063101754721E+05,      /* I =116 */
(PID.TID 0000.0001)                 2.923567890694162E+05,      /* I =117 */
(PID.TID 0000.0001)                 2.872580915202295E+05,      /* I =118 */
(PID.TID 0000.0001)                 2.809856491525217E+05,      /* I =119 */
(PID.TID 0000.0001)                 2.734980225206389E+05,      /* I =120 */
(PID.TID 0000.0001)                 2.647274964828302E+05,      /* I =121 */
(PID.TID 0000.0001)                 2.545652950875683E+05,      /* I =122 */
(PID.TID 0000.0001)                 2.428369969078989E+05,      /* I =123 */
(PID.TID 0000.0001)                 2.292584591272880E+05,      /* I =124 */
(PID.TID 0000.0001)                 2.133486626971531E+05,      /* I =125 */
(PID.TID 0000.0001)                 1.942331448101592E+05,      /* I =126 */
(PID.TID 0000.0001)                 1.701080315742101E+05,      /* I =127 */
(PID.TID 0000.0001)                 1.362652340208229E+05,      /* I =128 */
(PID.TID 0000.0001)                 8.015229982413632E+04,      /* I =129 */
(PID.TID 0000.0001)                 1.362652340208229E+05,      /* I =130 */
(PID.TID 0000.0001)                 1.701080315742101E+05,      /* I =131 */
(PID.TID 0000.0001)                 1.942331448101592E+05,      /* I =132 */
(PID.TID 0000.0001)                 2.133486626971531E+05,      /* I =133 */
(PID.TID 0000.0001)                 2.292584591272880E+05,      /* I =134 */
(PID.TID 0000.0001)                 2.428369969078989E+05,      /* I =135 */
(PID.TID 0000.0001)                 2.545652950875683E+05,      /* I =136 */
(PID.TID 0000.0001)                 2.647274964828302E+05,      /* I =137 */
(PID.TID 0000.0001)                 2.734980225206389E+05,      /* I =138 */
(PID.TID 0000.0001)                 2.809856491525217E+05,      /* I =139 */
(PID.TID 0000.0001)                 2.872580915202295E+05,      /* I =140 */
(PID.TID 0000.0001)                 2.923567890694162E+05,      /* I =141 */
(PID.TID 0000.0001)                 2.963063101754721E+05,      /* I =142 */
(PID.TID 0000.0001)                 2.991205495886625E+05,      /* I =143 */
(PID.TID 0000.0001)                 3.008068453676764E+05,      /* I =144 */
(PID.TID 0000.0001)                 3.013686170436881E+05,      /* I =145 */
(PID.TID 0000.0001)                 3.008068453676764E+05,      /* I =146 */
(PID.TID 0000.0001)                 2.991205495886625E+05,      /* I =147 */
(PID.TID 0000.0001)                 2.963063101754721E+05,      /* I =148 */
(PID.TID 0000.0001)                 2.923567890694162E+05,      /* I =149 */
(PID.TID 0000.0001)                 2.872580915202295E+05,      /* I =150 */
(PID.TID 0000.0001)                 2.809856491525217E+05,      /* I =151 */
(PID.TID 0000.0001)                 2.734980225206389E+05,      /* I =152 */
(PID.TID 0000.0001)                 2.647274964828302E+05,      /* I =153 */
(PID.TID 0000.0001)                 2.545652950875683E+05,      /* I =154 */
(PID.TID 0000.0001)                 2.428369969078989E+05,      /* I =155 */
(PID.TID 0000.0001)                 2.292584591272880E+05,      /* I =156 */
(PID.TID 0000.0001)                 2.133486626971531E+05,      /* I =157 */
(PID.TID 0000.0001)                 1.942331448101592E+05,      /* I =158 */
(PID.TID 0000.0001)                 1.701080315742101E+05,      /* I =159 */
(PID.TID 0000.0001)                 1.362652340208229E+05,      /* I =160 */
(PID.TID 0000.0001)                 8.015229982413632E+04,      /* I =161 */
(PID.TID 0000.0001)                 1.362652340208229E+05,      /* I =162 */
(PID.TID 0000.0001)                 1.701080315742101E+05,      /* I =163 */
(PID.TID 0000.0001)                 1.942331448101592E+05,      /* I =164 */
(PID.TID 0000.0001)                 2.133486626971531E+05,      /* I =165 */
(PID.TID 0000.0001)                 2.292584591272880E+05,      /* I =166 */
(PID.TID 0000.0001)                 2.428369969078989E+05,      /* I =167 */
(PID.TID 0000.0001)                 2.545652950875683E+05,      /* I =168 */
(PID.TID 0000.0001)                 2.647274964828302E+05,      /* I =169 */
(PID.TID 0000.0001)                 2.734980225206389E+05,      /* I =170 */
(PID.TID 0000.0001)                 2.809856491525217E+05,      /* I =171 */
(PID.TID 0000.0001)                 2.872580915202295E+05,      /* I =172 */
(PID.TID 0000.0001)                 2.923567890694162E+05,      /* I =173 */
(PID.TID 0000.0001)                 2.963063101754721E+05,      /* I =174 */
(PID.TID 0000.0001)                 2.991205495886625E+05,      /* I =175 */
(PID.TID 0000.0001)                 3.008068453676764E+05,      /* I =176 */
(PID.TID 0000.0001)                 3.013686170436881E+05,      /* I =177 */
(PID.TID 0000.0001)                 3.008068453676764E+05,      /* I =178 */
(PID.TID 0000.0001)                 2.991205495886625E+05,      /* I =179 */
(PID.TID 0000.0001)                 2.963063101754721E+05,      /* I =180 */
(PID.TID 0000.0001)                 2.923567890694162E+05,      /* I =181 */
(PID.TID 0000.0001)                 2.872580915202295E+05,      /* I =182 */
(PID.TID 0000.0001)                 2.809856491525217E+05,      /* I =183 */
(PID.TID 0000.0001)                 2.734980225206389E+05,      /* I =184 */
(PID.TID 0000.0001)                 2.647274964828302E+05,      /* I =185 */
(PID.TID 0000.0001)                 2.545652950875683E+05,      /* I =186 */
(PID.TID 0000.0001)                 2.428369969078989E+05,      /* I =187 */
(PID.TID 0000.0001)                 2.292584591272880E+05,      /* I =188 */
(PID.TID 0000.0001)                 2.133486626971531E+05,      /* I =189 */
(PID.TID 0000.0001)                 1.942331448101592E+05,      /* I =190 */
(PID.TID 0000.0001)                 1.701080315742101E+05,      /* I =191 */
(PID.TID 0000.0001)                 1.362652340208229E+05       /* I =192 */
(PID.TID 0000.0001)     ;
(PID.TID 0000.0001) dyU =  /* dyU(1,:,1,:) ( units: m ) */
(PID.TID 0000.0001)                 8.015229982413632E+04,      /* J =  1 */
(PID.TID 0000.0001)                 1.333130744933864E+05,      /* J =  2 */
(PID.TID 0000.0001)                 1.691744868129062E+05,      /* J =  3 */
(PID.TID 0000.0001)                 1.937548202849060E+05,      /* J =  4 */
(PID.TID 0000.0001)                 2.130490056267208E+05,      /* J =  5 */
(PID.TID 0000.0001)                 2.290479919481738E+05,      /* J =  6 */
(PID.TID 0000.0001)                 2.426774358027004E+05,      /* J =  7 */
(PID.TID 0000.0001)                 2.544372984215561E+05,      /* J =  8 */
(PID.TID 0000.0001)                 2.646201463834826E+05,      /* J =  9 */
(PID.TID 0000.0001)                 2.734046499619031E+05,      /* J = 10 */
(PID.TID 0000.0001)                 2.809019351693761E+05,      /* J = 11 */
(PID.TID 0000.0001)                 2.871811105274442E+05,      /* J = 12 */
(PID.TID 0000.0001)                 2.922844849381675E+05,      /* J = 13 */
(PID.TID 0000.0001)                 2.962371870847826E+05,      /* J = 14 */
(PID.TID 0000.0001)                 2.990534755671296E+05,      /* J = 15 */
(PID.TID 0000.0001)                 3.007409169495504E+05,      /* J = 16 */
(PID.TID 0000.0001)                 3.013031486919771E+05,      /* J = 17 */
(PID.TID 0000.0001)                 3.007409169495504E+05,      /* J = 18 */
(PID.TID 0000.0001)                 2.990534755671296E+05,      /* J = 19 */
(PID.TID 0000.0001)                 2.962371870847826E+05,      /* J = 20 */
(PID.TID 0000.0001)                 2.922844849381675E+05,      /* J = 21 */
(PID.TID 0000.0001)                 2.871811105274442E+05,      /* J = 22 */
(PID.TID 0000.0001)                 2.809019351693761E+05,      /* J = 23 */
(PID.TID 0000.0001)                 2.734046499619031E+05,      /* J = 24 */
(PID.TID 0000.0001)                 2.646201463834826E+05,      /* J = 25 */
(PID.TID 0000.0001)                 2.544372984215561E+05,      /* J = 26 */
(PID.TID 0000.0001)                 2.426774358027004E+05,      /* J = 27 */
(PID.TID 0000.0001)                 2.290479919481738E+05,      /* J = 28 */
(PID.TID 0000.0001)                 2.130490056267208E+05,      /* J = 29 */
(PID.TID 0000.0001)                 1.937548202849060E+05,      /* J = 30 */
(PID.TID 0000.0001)                 1.691744868129062E+05,      /* J = 31 */
(PID.TID 0000.0001)                 1.333130744933864E+05       /* J = 32 */
(PID.TID 0000.0001)     ;
(PID.TID 0000.0001) rA  =  /* rA (:,1,:,1) ( units: m^2 ) */
(PID.TID 0000.0001)                 1.549786705672200E+10,      /* I =  1 */
(PID.TID 0000.0001)                 2.487202533723945E+10,      /* I =  2 */
(PID.TID 0000.0001)                 3.392265412140352E+10,      /* I =  3 */
(PID.TID 0000.0001)                 4.200427377313133E+10,      /* I =  4 */
(PID.TID 0000.0001)                 4.931323764668228E+10,      /* I =  5 */
(PID.TID 0000.0001)                 5.597545074899420E+10,      /* I =  6 */
(PID.TID 0000.0001)                 6.205603937791459E+10,      /* I =  7 */
(PID.TID 0000.0001)                 6.758299971934573E+10,      /* I =  8 */
(PID.TID 0000.0001)                 7.256155653843707E+10,      /* I =  9 */
(PID.TID 0000.0001)                 7.698291833687604E+10,      /* I = 10 */
(PID.TID 0000.0001)                 8.083005486272009E+10,      /* I = 11 */
(PID.TID 0000.0001)                 8.408183191745641E+10,      /* I = 12 */
(PID.TID 0000.0001)                 8.671615787312848E+10,      /* I = 13 */
(PID.TID 0000.0001)                 8.871245486529788E+10,      /* I = 14 */
(PID.TID 0000.0001)                 9.005359372079962E+10,      /* I = 15 */
(PID.TID 0000.0001)     2 @  9.072735712796770E+10,             /* I = 16: 17 */
(PID.TID 0000.0001)                 9.005359372079962E+10,      /* I = 18 */
(PID.TID 0000.0001)                 8.871245486529788E+10,      /* I = 19 */
(PID.TID 0000.0001)                 8.671615787312848E+10,      /* I = 20 */
(PID.TID 0000.0001)                 8.408183191745641E+10,      /* I = 21 */
(PID.TID 0000.0001)                 8.083005486272009E+10,      /* I = 22 */
(PID.TID 0000.0001)                 7.698291833687604E+10,      /* I = 23 */
(PID.TID 0000.0001)                 7.256155653843707E+10,      /* I = 24 */
(PID.TID 0000.0001)                 6.758299971934573E+10,      /* I = 25 */
(PID.TID 0000.0001)                 6.205603937791459E+10,      /* I = 26 */
(PID.TID 0000.0001)                 5.597545074899420E+10,      /* I = 27 */
(PID.TID 0000.0001)                 4.931323764668228E+10,      /* I = 28 */
(PID.TID 0000.0001)                 4.200427377313133E+10,      /* I = 29 */
(PID.TID 0000.0001)                 3.392265412140352E+10,      /* I = 30 */
(PID.TID 0000.0001)                 2.487202533723945E+10,      /* I = 31 */
(PID.TID 0000.0001)     2 @  1.549786705672200E+10,             /* I = 32: 33 */
(PID.TID 0000.0001)                 2.487202533723945E+10,      /* I = 34 */
(PID.TID 0000.0001)                 3.392265412140352E+10,      /* I = 35 */
(PID.TID 0000.0001)                 4.200427377313133E+10,      /* I = 36 */
(PID.TID 0000.0001)                 4.931323764668228E+10,      /* I = 37 */
(PID.TID 0000.0001)                 5.597545074899420E+10,      /* I = 38 */
(PID.TID 0000.0001)                 6.205603937791459E+10,      /* I = 39 */
(PID.TID 0000.0001)                 6.758299971934573E+10,      /* I = 40 */
(PID.TID 0000.0001)                 7.256155653843707E+10,      /* I = 41 */
(PID.TID 0000.0001)                 7.698291833687604E+10,      /* I = 42 */
(PID.TID 0000.0001)                 8.083005486272009E+10,      /* I = 43 */
(PID.TID 0000.0001)                 8.408183191745641E+10,      /* I = 44 */
(PID.TID 0000.0001)                 8.671615787312848E+10,      /* I = 45 */
(PID.TID 0000.0001)                 8.871245486529788E+10,      /* I = 46 */
(PID.TID 0000.0001)                 9.005359372079962E+10,      /* I = 47 */
(PID.TID 0000.0001)     2 @  9.072735712796770E+10,             /* I = 48: 49 */
(PID.TID 0000.0001)                 9.005359372079962E+10,      /* I = 50 */
(PID.TID 0000.0001)                 8.871245486529788E+10,      /* I = 51 */
(PID.TID 0000.0001)                 8.671615787312848E+10,      /* I = 52 */
(PID.TID 0000.0001)                 8.408183191745641E+10,      /* I = 53 */
(PID.TID 0000.0001)                 8.083005486272009E+10,      /* I = 54 */
(PID.TID 0000.0001)                 7.698291833687604E+10,      /* I = 55 */
(PID.TID 0000.0001)                 7.256155653843707E+10,      /* I = 56 */
(PID.TID 0000.0001)                 6.758299971934573E+10,      /* I = 57 */
(PID.TID 0000.0001)                 6.205603937791459E+10,      /* I = 58 */
(PID.TID 0000.0001)                 5.597545074899420E+10,      /* I = 59 */
(PID.TID 0000.0001)                 4.931323764668228E+10,      /* I = 60 */
(PID.TID 0000.0001)                 4.200427377313133E+10,      /* I = 61 */
(PID.TID 0000.0001)                 3.392265412140352E+10,      /* I = 62 */
(PID.TID 0000.0001)                 2.487202533723945E+10,      /* I = 63 */
(PID.TID 0000.0001)     2 @  1.549786705672200E+10,             /* I = 64: 65 */
(PID.TID 0000.0001)                 2.487202533723945E+10,      /* I = 66 */
(PID.TID 0000.0001)                 3.392265412140352E+10,      /* I = 67 */
(PID.TID 0000.0001)                 4.200427377313133E+10,      /* I = 68 */
(PID.TID 0000.0001)                 4.931323764668228E+10,      /* I = 69 */
(PID.TID 0000.0001)                 5.597545074899420E+10,      /* I = 70 */
(PID.TID 0000.0001)                 6.205603937791459E+10,      /* I = 71 */
(PID.TID 0000.0001)                 6.758299971934573E+10,      /* I = 72 */
(PID.TID 0000.0001)                 7.256155653843707E+10,      /* I = 73 */
(PID.TID 0000.0001)                 7.698291833687604E+10,      /* I = 74 */
(PID.TID 0000.0001)                 8.083005486272009E+10,      /* I = 75 */
(PID.TID 0000.0001)                 8.408183191745641E+10,      /* I = 76 */
(PID.TID 0000.0001)                 8.671615787312848E+10,      /* I = 77 */
(PID.TID 0000.0001)                 8.871245486529788E+10,      /* I = 78 */
(PID.TID 0000.0001)                 9.005359372079962E+10,      /* I = 79 */
(PID.TID 0000.0001)     2 @  9.072735712796770E+10,             /* I = 80: 81 */
(PID.TID 0000.0001)                 9.005359372079962E+10,      /* I = 82 */
(PID.TID 0000.0001)                 8.871245486529788E+10,      /* I = 83 */
(PID.TID 0000.0001)                 8.671615787312848E+10,      /* I = 84 */
(PID.TID 0000.0001)                 8.408183191745641E+10,      /* I = 85 */
(PID.TID 0000.0001)                 8.083005486272009E+10,      /* I = 86 */
(PID.TID 0000.0001)                 7.698291833687604E+10,      /* I = 87 */
(PID.TID 0000.0001)                 7.256155653843707E+10,      /* I = 88 */
(PID.TID 0000.0001)                 6.758299971934573E+10,      /* I = 89 */
(PID.TID 0000.0001)                 6.205603937791459E+10,      /* I = 90 */
(PID.TID 0000.0001)                 5.597545074899420E+10,      /* I = 91 */
(PID.TID 0000.0001)                 4.931323764668228E+10,      /* I = 92 */
(PID.TID 0000.0001)                 4.200427377313133E+10,      /* I = 93 */
(PID.TID 0000.0001)                 3.392265412140352E+10,      /* I = 94 */
(PID.TID 0000.0001)                 2.487202533723945E+10,      /* I = 95 */
(PID.TID 0000.0001)     2 @  1.549786705672200E+10,             /* I = 96: 97 */
(PID.TID 0000.0001)                 2.487202533723945E+10,      /* I = 98 */
(PID.TID 0000.0001)                 3.392265412140352E+10,      /* I = 99 */
(PID.TID 0000.0001)                 4.200427377313133E+10,      /* I =100 */
(PID.TID 0000.0001)                 4.931323764668228E+10,      /* I =101 */
(PID.TID 0000.0001)                 5.597545074899420E+10,      /* I =102 */
(PID.TID 0000.0001)                 6.205603937791459E+10,      /* I =103 */
(PID.TID 0000.0001)                 6.758299971934573E+10,      /* I =104 */
(PID.TID 0000.0001)                 7.256155653843707E+10,      /* I =105 */
(PID.TID 0000.0001)                 7.698291833687604E+10,      /* I =106 */
(PID.TID 0000.0001)                 8.083005486272009E+10,      /* I =107 */
(PID.TID 0000.0001)                 8.408183191745641E+10,      /* I =108 */
(PID.TID 0000.0001)                 8.671615787312848E+10,      /* I =109 */
(PID.TID 0000.0001)                 8.871245486529788E+10,      /* I =110 */
(PID.TID 0000.0001)                 9.005359372079962E+10,      /* I =111 */
(PID.TID 0000.0001)     2 @  9.072735712796770E+10,             /* I =112:113 */
(PID.TID 0000.0001)                 9.005359372079962E+10,      /* I =114 */
(PID.TID 0000.0001)                 8.871245486529788E+10,      /* I =115 */
(PID.TID 0000.0001)                 8.671615787312848E+10,      /* I =116 */
(PID.TID 0000.0001)                 8.408183191745641E+10,      /* I =117 */
(PID.TID 0000.0001)                 8.083005486272009E+10,      /* I =118 */
(PID.TID 0000.0001)                 7.698291833687604E+10,      /* I =119 */
(PID.TID 0000.0001)                 7.256155653843707E+10,      /* I =120 */
(PID.TID 0000.0001)                 6.758299971934573E+10,      /* I =121 */
(PID.TID 0000.0001)                 6.205603937791459E+10,      /* I =122 */
(PID.TID 0000.0001)                 5.597545074899420E+10,      /* I =123 */
(PID.TID 0000.0001)                 4.931323764668228E+10,      /* I =124 */
(PID.TID 0000.0001)                 4.200427377313133E+10,      /* I =125 */
(PID.TID 0000.0001)                 3.392265412140352E+10,      /* I =126 */
(PID.TID 0000.0001)                 2.487202533723945E+10,      /* I =127 */
(PID.TID 0000.0001)     2 @  1.549786705672200E+10,             /* I =128:129 */
(PID.TID 0000.0001)                 2.487202533723945E+10,      /* I =130 */
(PID.TID 0000.0001)                 3.392265412140352E+10,      /* I =131 */
(PID.TID 0000.0001)                 4.200427377313133E+10,      /* I =132 */
(PID.TID 0000.0001)                 4.931323764668228E+10,      /* I =133 */
(PID.TID 0000.0001)                 5.597545074899420E+10,      /* I =134 */
(PID.TID 0000.0001)                 6.205603937791459E+10,      /* I =135 */
(PID.TID 0000.0001)                 6.758299971934573E+10,      /* I =136 */
(PID.TID 0000.0001)                 7.256155653843707E+10,      /* I =137 */
(PID.TID 0000.0001)                 7.698291833687604E+10,      /* I =138 */
(PID.TID 0000.0001)                 8.083005486272009E+10,      /* I =139 */
(PID.TID 0000.0001)                 8.408183191745641E+10,      /* I =140 */
(PID.TID 0000.0001)                 8.671615787312848E+10,      /* I =141 */
(PID.TID 0000.0001)                 8.871245486529788E+10,      /* I =142 */
(PID.TID 0000.0001)                 9.005359372079962E+10,      /* I =143 */
(PID.TID 0000.0001)     2 @  9.072735712796770E+10,             /* I =144:145 */
(PID.TID 0000.0001)                 9.005359372079962E+10,      /* I =146 */
(PID.TID 0000.0001)                 8.871245486529788E+10,      /* I =147 */
(PID.TID 0000.0001)                 8.671615787312848E+10,      /* I =148 */
(PID.TID 0000.0001)                 8.408183191745641E+10,      /* I =149 */
(PID.TID 0000.0001)                 8.083005486272009E+10,      /* I =150 */
(PID.TID 0000.0001)                 7.698291833687604E+10,      /* I =151 */
(PID.TID 0000.0001)                 7.256155653843707E+10,      /* I =152 */
(PID.TID 0000.0001)                 6.758299971934573E+10,      /* I =153 */
(PID.TID 0000.0001)                 6.205603937791459E+10,      /* I =154 */
(PID.TID 0000.0001)                 5.597545074899420E+10,      /* I =155 */
(PID.TID 0000.0001)                 4.931323764668228E+10,      /* I =156 */
(PID.TID 0000.0001)                 4.200427377313133E+10,      /* I =157 */
(PID.TID 0000.0001)                 3.392265412140352E+10,      /* I =158 */
(PID.TID 0000.0001)                 2.487202533723945E+10,      /* I =159 */
(PID.TID 0000.0001)     2 @  1.549786705672200E+10,             /* I =160:161 */
(PID.TID 0000.0001)                 2.487202533723945E+10,      /* I =162 */
(PID.TID 0000.0001)                 3.392265412140352E+10,      /* I =163 */
(PID.TID 0000.0001)                 4.200427377313133E+10,      /* I =164 */
(PID.TID 0000.0001)                 4.931323764668228E+10,      /* I =165 */
(PID.TID 0000.0001)                 5.597545074899420E+10,      /* I =166 */
(PID.TID 0000.0001)                 6.205603937791459E+10,      /* I =167 */
(PID.TID 0000.0001)                 6.758299971934573E+10,      /* I =168 */
(PID.TID 0000.0001)                 7.256155653843707E+10,      /* I =169 */
(PID.TID 0000.0001)                 7.698291833687604E+10,      /* I =170 */
(PID.TID 0000.0001)                 8.083005486272009E+10,      /* I =171 */
(PID.TID 0000.0001)                 8.408183191745641E+10,      /* I =172 */
(PID.TID 0000.0001)                 8.671615787312848E+10,      /* I =173 */
(PID.TID 0000.0001)                 8.871245486529788E+10,      /* I =174 */
(PID.TID 0000.0001)                 9.005359372079962E+10,      /* I =175 */
(PID.TID 0000.0001)     2 @  9.072735712796770E+10,             /* I =176:177 */
(PID.TID 0000.0001)                 9.005359372079962E+10,      /* I =178 */
(PID.TID 0000.0001)                 8.871245486529788E+10,      /* I =179 */
(PID.TID 0000.0001)                 8.671615787312848E+10,      /* I =180 */
(PID.TID 0000.0001)                 8.408183191745641E+10,      /* I =181 */
(PID.TID 0000.0001)                 8.083005486272009E+10,      /* I =182 */
(PID.TID 0000.0001)                 7.698291833687604E+10,      /* I =183 */
(PID.TID 0000.0001)                 7.256155653843707E+10,      /* I =184 */
(PID.TID 0000.0001)                 6.758299971934573E+10,      /* I =185 */
(PID.TID 0000.0001)                 6.205603937791459E+10,      /* I =186 */
(PID.TID 0000.0001)                 5.597545074899420E+10,      /* I =187 */
(PID.TID 0000.0001)                 4.931323764668228E+10,      /* I =188 */
(PID.TID 0000.0001)                 4.200427377313133E+10,      /* I =189 */
(PID.TID 0000.0001)                 3.392265412140352E+10,      /* I =190 */
(PID.TID 0000.0001)                 2.487202533723945E+10,      /* I =191 */
(PID.TID 0000.0001)                 1.549786705672200E+10       /* I =192 */
(PID.TID 0000.0001)     ;
(PID.TID 0000.0001) rA  =  /* rA (1,:,1,:) ( units: m^2 ) */
(PID.TID 0000.0001)                 1.549786705672200E+10,      /* J =  1 */
(PID.TID 0000.0001)                 2.487202533723945E+10,      /* J =  2 */
(PID.TID 0000.0001)                 3.392265412140352E+10,      /* J =  3 */
(PID.TID 0000.0001)                 4.200427377313133E+10,      /* J =  4 */
(PID.TID 0000.0001)                 4.931323764668228E+10,      /* J =  5 */
(PID.TID 0000.0001)                 5.597545074899419E+10,      /* J =  6 */
(PID.TID 0000.0001)                 6.205603937791459E+10,      /* J =  7 */
(PID.TID 0000.0001)                 6.758299971934573E+10,      /* J =  8 */
(PID.TID 0000.0001)                 7.256155653843707E+10,      /* J =  9 */
(PID.TID 0000.0001)                 7.698291833687604E+10,      /* J = 10 */
(PID.TID 0000.0001)                 8.083005486272011E+10,      /* J = 11 */
(PID.TID 0000.0001)                 8.408183191745641E+10,      /* J = 12 */
(PID.TID 0000.0001)                 8.671615787312848E+10,      /* J = 13 */
(PID.TID 0000.0001)                 8.871245486529788E+10,      /* J = 14 */
(PID.TID 0000.0001)                 9.005359372079964E+10,      /* J = 15 */
(PID.TID 0000.0001)     2 @  9.072735712796770E+10,             /* J = 16: 17 */
(PID.TID 0000.0001)                 9.005359372079964E+10,      /* J = 18 */
(PID.TID 0000.0001)                 8.871245486529788E+10,      /* J = 19 */
(PID.TID 0000.0001)                 8.671615787312848E+10,      /* J = 20 */
(PID.TID 0000.0001)                 8.408183191745641E+10,      /* J = 21 */
(PID.TID 0000.0001)                 8.083005486272011E+10,      /* J = 22 */
(PID.TID 0000.0001)                 7.698291833687604E+10,      /* J = 23 */
(PID.TID 0000.0001)                 7.256155653843707E+10,      /* J = 24 */
(PID.TID 0000.0001)                 6.758299971934573E+10,      /* J = 25 */
(PID.TID 0000.0001)                 6.205603937791459E+10,      /* J = 26 */
(PID.TID 0000.0001)                 5.597545074899419E+10,      /* J = 27 */
(PID.TID 0000.0001)                 4.931323764668228E+10,      /* J = 28 */
(PID.TID 0000.0001)                 4.200427377313133E+10,      /* J = 29 */
(PID.TID 0000.0001)                 3.392265412140352E+10,      /* J = 30 */
(PID.TID 0000.0001)                 2.487202533723945E+10,      /* J = 31 */
(PID.TID 0000.0001)                 1.549786705672200E+10       /* J = 32 */
(PID.TID 0000.0001)     ;
(PID.TID 0000.0001) rAw =  /* rAw(:,1,:,1) ( units: m^2 ) */
(PID.TID 0000.0001)                 1.146542574196578E+10,      /* I =  1 */
(PID.TID 0000.0001)                 1.953030837147821E+10,      /* I =  2 */
(PID.TID 0000.0001)                 2.933967873337320E+10,      /* I =  3 */
(PID.TID 0000.0001)                 3.796176706541101E+10,      /* I =  4 */
(PID.TID 0000.0001)                 4.567569462064098E+10,      /* I =  5 */
(PID.TID 0000.0001)                 5.267377164042021E+10,      /* I =  6 */
(PID.TID 0000.0001)                 5.905615583203223E+10,      /* I =  7 */
(PID.TID 0000.0001)                 6.487043381386549E+10,      /* I =  8 */
(PID.TID 0000.0001)                 7.013339442433482E+10,      /* I =  9 */
(PID.TID 0000.0001)                 7.484316069116351E+10,      /* I = 10 */
(PID.TID 0000.0001)                 7.898662143005907E+10,      /* I = 11 */
(PID.TID 0000.0001)                 8.254445101987663E+10,      /* I = 12 */
(PID.TID 0000.0001)                 8.549478360691351E+10,      /* I = 13 */
(PID.TID 0000.0001)                 8.781604517750543E+10,      /* I = 14 */
(PID.TID 0000.0001)                 8.948917519517891E+10,      /* I = 15 */
(PID.TID 0000.0001)                 9.049933392602551E+10,      /* I = 16 */
(PID.TID 0000.0001)                 9.083715262395342E+10,      /* I = 17 */
(PID.TID 0000.0001)                 9.049933392602551E+10,      /* I = 18 */
(PID.TID 0000.0001)                 8.948917519517891E+10,      /* I = 19 */
(PID.TID 0000.0001)                 8.781604517750543E+10,      /* I = 20 */
(PID.TID 0000.0001)                 8.549478360691351E+10,      /* I = 21 */
(PID.TID 0000.0001)                 8.254445101987663E+10,      /* I = 22 */
(PID.TID 0000.0001)                 7.898662143005907E+10,      /* I = 23 */
(PID.TID 0000.0001)                 7.484316069116351E+10,      /* I = 24 */
(PID.TID 0000.0001)                 7.013339442433482E+10,      /* I = 25 */
(PID.TID 0000.0001)                 6.487043381386549E+10,      /* I = 26 */
(PID.TID 0000.0001)                 5.905615583203223E+10,      /* I = 27 */
(PID.TID 0000.0001)                 5.267377164042021E+10,      /* I = 28 */
(PID.TID 0000.0001)                 4.567569462064098E+10,      /* I = 29 */
(PID.TID 0000.0001)                 3.796176706541101E+10,      /* I = 30 */
(PID.TID 0000.0001)                 2.933967873337320E+10,      /* I = 31 */
(PID.TID 0000.0001)                 1.953030837147821E+10,      /* I = 32 */
(PID.TID 0000.0001)                 1.146542574196578E+10,      /* I = 33 */
(PID.TID 0000.0001)                 1.953030837147821E+10,      /* I = 34 */
(PID.TID 0000.0001)                 2.933967873337320E+10,      /* I = 35 */
(PID.TID 0000.0001)                 3.796176706541101E+10,      /* I = 36 */
(PID.TID 0000.0001)                 4.567569462064098E+10,      /* I = 37 */
(PID.TID 0000.0001)                 5.267377164042021E+10,      /* I = 38 */
(PID.TID 0000.0001)                 5.905615583203223E+10,      /* I = 39 */
(PID.TID 0000.0001)                 6.487043381386549E+10,      /* I = 40 */
(PID.TID 0000.0001)                 7.013339442433482E+10,      /* I = 41 */
(PID.TID 0000.0001)                 7.484316069116351E+10,      /* I = 42 */
(PID.TID 0000.0001)                 7.898662143005907E+10,      /* I = 43 */
(PID.TID 0000.0001)                 8.254445101987663E+10,      /* I = 44 */
(PID.TID 0000.0001)                 8.549478360691351E+10,      /* I = 45 */
(PID.TID 0000.0001)                 8.781604517750543E+10,      /* I = 46 */
(PID.TID 0000.0001)                 8.948917519517891E+10,      /* I = 47 */
(PID.TID 0000.0001)                 9.049933392602551E+10,      /* I = 48 */
(PID.TID 0000.0001)                 9.083715262395342E+10,      /* I = 49 */
(PID.TID 0000.0001)                 9.049933392602551E+10,      /* I = 50 */
(PID.TID 0000.0001)                 8.948917519517891E+10,      /* I = 51 */
(PID.TID 0000.0001)                 8.781604517750543E+10,      /* I = 52 */
(PID.TID 0000.0001)                 8.549478360691351E+10,      /* I = 53 */
(PID.TID 0000.0001)                 8.254445101987663E+10,      /* I = 54 */
(PID.TID 0000.0001)                 7.898662143005907E+10,      /* I = 55 */
(PID.TID 0000.0001)                 7.484316069116351E+10,      /* I = 56 */
(PID.TID 0000.0001)                 7.013339442433482E+10,      /* I = 57 */
(PID.TID 0000.0001)                 6.487043381386549E+10,      /* I = 58 */
(PID.TID 0000.0001)                 5.905615583203223E+10,      /* I = 59 */
(PID.TID 0000.0001)                 5.267377164042021E+10,      /* I = 60 */
(PID.TID 0000.0001)                 4.567569462064098E+10,      /* I = 61 */
(PID.TID 0000.0001)                 3.796176706541101E+10,      /* I = 62 */
(PID.TID 0000.0001)                 2.933967873337320E+10,      /* I = 63 */
(PID.TID 0000.0001)                 1.953030837147821E+10,      /* I = 64 */
(PID.TID 0000.0001)                 1.146542574196578E+10,      /* I = 65 */
(PID.TID 0000.0001)                 1.953030837147821E+10,      /* I = 66 */
(PID.TID 0000.0001)                 2.933967873337320E+10,      /* I = 67 */
(PID.TID 0000.0001)                 3.796176706541101E+10,      /* I = 68 */
(PID.TID 0000.0001)                 4.567569462064098E+10,      /* I = 69 */
(PID.TID 0000.0001)                 5.267377164042021E+10,      /* I = 70 */
(PID.TID 0000.0001)                 5.905615583203223E+10,      /* I = 71 */
(PID.TID 0000.0001)                 6.487043381386549E+10,      /* I = 72 */
(PID.TID 0000.0001)                 7.013339442433482E+10,      /* I = 73 */
(PID.TID 0000.0001)                 7.484316069116351E+10,      /* I = 74 */
(PID.TID 0000.0001)                 7.898662143005907E+10,      /* I = 75 */
(PID.TID 0000.0001)                 8.254445101987663E+10,      /* I = 76 */
(PID.TID 0000.0001)                 8.549478360691351E+10,      /* I = 77 */
(PID.TID 0000.0001)                 8.781604517750543E+10,      /* I = 78 */
(PID.TID 0000.0001)                 8.948917519517891E+10,      /* I = 79 */
(PID.TID 0000.0001)                 9.049933392602551E+10,      /* I = 80 */
(PID.TID 0000.0001)                 9.083715262395342E+10,      /* I = 81 */
(PID.TID 0000.0001)                 9.049933392602551E+10,      /* I = 82 */
(PID.TID 0000.0001)                 8.948917519517891E+10,      /* I = 83 */
(PID.TID 0000.0001)                 8.781604517750543E+10,      /* I = 84 */
(PID.TID 0000.0001)                 8.549478360691351E+10,      /* I = 85 */
(PID.TID 0000.0001)                 8.254445101987663E+10,      /* I = 86 */
(PID.TID 0000.0001)                 7.898662143005907E+10,      /* I = 87 */
(PID.TID 0000.0001)                 7.484316069116351E+10,      /* I = 88 */
(PID.TID 0000.0001)                 7.013339442433482E+10,      /* I = 89 */
(PID.TID 0000.0001)                 6.487043381386549E+10,      /* I = 90 */
(PID.TID 0000.0001)                 5.905615583203223E+10,      /* I = 91 */
(PID.TID 0000.0001)                 5.267377164042021E+10,      /* I = 92 */
(PID.TID 0000.0001)                 4.567569462064098E+10,      /* I = 93 */
(PID.TID 0000.0001)                 3.796176706541101E+10,      /* I = 94 */
(PID.TID 0000.0001)                 2.933967873337320E+10,      /* I = 95 */
(PID.TID 0000.0001)                 1.953030837147821E+10,      /* I = 96 */
(PID.TID 0000.0001)                 1.146542574196578E+10,      /* I = 97 */
(PID.TID 0000.0001)                 1.953030837147821E+10,      /* I = 98 */
(PID.TID 0000.0001)                 2.933967873337320E+10,      /* I = 99 */
(PID.TID 0000.0001)                 3.796176706541101E+10,      /* I =100 */
(PID.TID 0000.0001)                 4.567569462064098E+10,      /* I =101 */
(PID.TID 0000.0001)                 5.267377164042021E+10,      /* I =102 */
(PID.TID 0000.0001)                 5.905615583203223E+10,      /* I =103 */
(PID.TID 0000.0001)                 6.487043381386549E+10,      /* I =104 */
(PID.TID 0000.0001)                 7.013339442433482E+10,      /* I =105 */
(PID.TID 0000.0001)                 7.484316069116351E+10,      /* I =106 */
(PID.TID 0000.0001)                 7.898662143005907E+10,      /* I =107 */
(PID.TID 0000.0001)                 8.254445101987663E+10,      /* I =108 */
(PID.TID 0000.0001)                 8.549478360691351E+10,      /* I =109 */
(PID.TID 0000.0001)                 8.781604517750543E+10,      /* I =110 */
(PID.TID 0000.0001)                 8.948917519517891E+10,      /* I =111 */
(PID.TID 0000.0001)                 9.049933392602551E+10,      /* I =112 */
(PID.TID 0000.0001)                 9.083715262395342E+10,      /* I =113 */
(PID.TID 0000.0001)                 9.049933392602551E+10,      /* I =114 */
(PID.TID 0000.0001)                 8.948917519517891E+10,      /* I =115 */
(PID.TID 0000.0001)                 8.781604517750543E+10,      /* I =116 */
(PID.TID 0000.0001)                 8.549478360691351E+10,      /* I =117 */
(PID.TID 0000.0001)                 8.254445101987663E+10,      /* I =118 */
(PID.TID 0000.0001)                 7.898662143005907E+10,      /* I =119 */
(PID.TID 0000.0001)                 7.484316069116351E+10,      /* I =120 */
(PID.TID 0000.0001)                 7.013339442433482E+10,      /* I =121 */
(PID.TID 0000.0001)                 6.487043381386549E+10,      /* I =122 */
(PID.TID 0000.0001)                 5.905615583203223E+10,      /* I =123 */
(PID.TID 0000.0001)                 5.267377164042021E+10,      /* I =124 */
(PID.TID 0000.0001)                 4.567569462064098E+10,      /* I =125 */
(PID.TID 0000.0001)                 3.796176706541101E+10,      /* I =126 */
(PID.TID 0000.0001)                 2.933967873337320E+10,      /* I =127 */
(PID.TID 0000.0001)                 1.953030837147821E+10,      /* I =128 */
(PID.TID 0000.0001)                 1.146542574196578E+10,      /* I =129 */
(PID.TID 0000.0001)                 1.953030837147821E+10,      /* I =130 */
(PID.TID 0000.0001)                 2.933967873337320E+10,      /* I =131 */
(PID.TID 0000.0001)                 3.796176706541101E+10,      /* I =132 */
(PID.TID 0000.0001)                 4.567569462064098E+10,      /* I =133 */
(PID.TID 0000.0001)                 5.267377164042021E+10,      /* I =134 */
(PID.TID 0000.0001)                 5.905615583203223E+10,      /* I =135 */
(PID.TID 0000.0001)                 6.487043381386549E+10,      /* I =136 */
(PID.TID 0000.0001)                 7.013339442433482E+10,      /* I =137 */
(PID.TID 0000.0001)                 7.484316069116351E+10,      /* I =138 */
(PID.TID 0000.0001)                 7.898662143005907E+10,      /* I =139 */
(PID.TID 0000.0001)                 8.254445101987663E+10,      /* I =140 */
(PID.TID 0000.0001)                 8.549478360691351E+10,      /* I =141 */
(PID.TID 0000.0001)                 8.781604517750543E+10,      /* I =142 */
(PID.TID 0000.0001)                 8.948917519517891E+10,      /* I =143 */
(PID.TID 0000.0001)                 9.049933392602551E+10,      /* I =144 */
(PID.TID 0000.0001)                 9.083715262395342E+10,      /* I =145 */
(PID.TID 0000.0001)                 9.049933392602551E+10,      /* I =146 */
(PID.TID 0000.0001)                 8.948917519517891E+10,      /* I =147 */
(PID.TID 0000.0001)                 8.781604517750543E+10,      /* I =148 */
(PID.TID 0000.0001)                 8.549478360691351E+10,      /* I =149 */
(PID.TID 0000.0001)                 8.254445101987663E+10,      /* I =150 */
(PID.TID 0000.0001)                 7.898662143005907E+10,      /* I =151 */
(PID.TID 0000.0001)                 7.484316069116351E+10,      /* I =152 */
(PID.TID 0000.0001)                 7.013339442433482E+10,      /* I =153 */
(PID.TID 0000.0001)                 6.487043381386549E+10,      /* I =154 */
(PID.TID 0000.0001)                 5.905615583203223E+10,      /* I =155 */
(PID.TID 0000.0001)                 5.267377164042021E+10,      /* I =156 */
(PID.TID 0000.0001)                 4.567569462064098E+10,      /* I =157 */
(PID.TID 0000.0001)                 3.796176706541101E+10,      /* I =158 */
(PID.TID 0000.0001)                 2.933967873337320E+10,      /* I =159 */
(PID.TID 0000.0001)                 1.953030837147821E+10,      /* I =160 */
(PID.TID 0000.0001)                 1.146542574196578E+10,      /* I =161 */
(PID.TID 0000.0001)                 1.953030837147821E+10,      /* I =162 */
(PID.TID 0000.0001)                 2.933967873337320E+10,      /* I =163 */
(PID.TID 0000.0001)                 3.796176706541101E+10,      /* I =164 */
(PID.TID 0000.0001)                 4.567569462064098E+10,      /* I =165 */
(PID.TID 0000.0001)                 5.267377164042021E+10,      /* I =166 */
(PID.TID 0000.0001)                 5.905615583203223E+10,      /* I =167 */
(PID.TID 0000.0001)                 6.487043381386549E+10,      /* I =168 */
(PID.TID 0000.0001)                 7.013339442433482E+10,      /* I =169 */
(PID.TID 0000.0001)                 7.484316069116351E+10,      /* I =170 */
(PID.TID 0000.0001)                 7.898662143005907E+10,      /* I =171 */
(PID.TID 0000.0001)                 8.254445101987663E+10,      /* I =172 */
(PID.TID 0000.0001)                 8.549478360691351E+10,      /* I =173 */
(PID.TID 0000.0001)                 8.781604517750543E+10,      /* I =174 */
(PID.TID 0000.0001)                 8.948917519517891E+10,      /* I =175 */
(PID.TID 0000.0001)                 9.049933392602551E+10,      /* I =176 */
(PID.TID 0000.0001)                 9.083715262395342E+10,      /* I =177 */
(PID.TID 0000.0001)                 9.049933392602551E+10,      /* I =178 */
(PID.TID 0000.0001)                 8.948917519517891E+10,      /* I =179 */
(PID.TID 0000.0001)                 8.781604517750543E+10,      /* I =180 */
(PID.TID 0000.0001)                 8.549478360691351E+10,      /* I =181 */
(PID.TID 0000.0001)                 8.254445101987663E+10,      /* I =182 */
(PID.TID 0000.0001)                 7.898662143005907E+10,      /* I =183 */
(PID.TID 0000.0001)                 7.484316069116351E+10,      /* I =184 */
(PID.TID 0000.0001)                 7.013339442433482E+10,      /* I =185 */
(PID.TID 0000.0001)                 6.487043381386549E+10,      /* I =186 */
(PID.TID 0000.0001)                 5.905615583203223E+10,      /* I =187 */
(PID.TID 0000.0001)                 5.267377164042021E+10,      /* I =188 */
(PID.TID 0000.0001)                 4.567569462064098E+10,      /* I =189 */
(PID.TID 0000.0001)                 3.796176706541101E+10,      /* I =190 */
(PID.TID 0000.0001)                 2.933967873337320E+10,      /* I =191 */
(PID.TID 0000.0001)                 1.953030837147821E+10       /* I =192 */
(PID.TID 0000.0001)     ;
(PID.TID 0000.0001) rAw =  /* rAw(1,:,1,:) ( units: m^2 ) */
(PID.TID 0000.0001)                 1.146542574196578E+10,      /* J =  1 */
(PID.TID 0000.0001)                 2.377787005983833E+10,      /* J =  2 */
(PID.TID 0000.0001)                 3.336273018972140E+10,      /* J =  3 */
(PID.TID 0000.0001)                 4.165099566747280E+10,      /* J =  4 */
(PID.TID 0000.0001)                 4.906782896008959E+10,      /* J =  5 */
(PID.TID 0000.0001)                 5.579613053300137E+10,      /* J =  6 */
(PID.TID 0000.0001)                 6.192151981164894E+10,      /* J =  7 */
(PID.TID 0000.0001)                 6.748097638954340E+10,      /* J =  8 */
(PID.TID 0000.0001)                 7.248418794208269E+10,      /* J =  9 */
(PID.TID 0000.0001)                 7.692477203447566E+10,      /* J = 10 */
(PID.TID 0000.0001)                 8.078707194826852E+10,      /* J = 11 */
(PID.TID 0000.0001)                 8.405076334249313E+10,      /* J = 12 */
(PID.TID 0000.0001)                 8.669423991218034E+10,      /* J = 13 */
(PID.TID 0000.0001)                 8.869721460381146E+10,      /* J = 14 */
(PID.TID 0000.0001)                 9.004272888354184E+10,      /* J = 15 */
(PID.TID 0000.0001)     2 @  9.071865929421040E+10,             /* J = 16: 17 */
(PID.TID 0000.0001)                 9.004272888354184E+10,      /* J = 18 */
(PID.TID 0000.0001)                 8.869721460381146E+10,      /* J = 19 */
(PID.TID 0000.0001)                 8.669423991218034E+10,      /* J = 20 */
(PID.TID 0000.0001)                 8.405076334249313E+10,      /* J = 21 */
(PID.TID 0000.0001)                 8.078707194826852E+10,      /* J = 22 */
(PID.TID 0000.0001)                 7.692477203447566E+10,      /* J = 23 */
(PID.TID 0000.0001)                 7.248418794208269E+10,      /* J = 24 */
(PID.TID 0000.0001)                 6.748097638954340E+10,      /* J = 25 */
(PID.TID 0000.0001)                 6.192151981164894E+10,      /* J = 26 */
(PID.TID 0000.0001)                 5.579613053300137E+10,      /* J = 27 */
(PID.TID 0000.0001)                 4.906782896008959E+10,      /* J = 28 */
(PID.TID 0000.0001)                 4.165099566747280E+10,      /* J = 29 */
(PID.TID 0000.0001)                 3.336273018972140E+10,      /* J = 30 */
(PID.TID 0000.0001)                 2.377787005983833E+10,      /* J = 31 */
(PID.TID 0000.0001)                 1.146542574196578E+10       /* J = 32 */
(PID.TID 0000.0001)     ;
(PID.TID 0000.0001) rAs =  /* rAs(:,1,:,1) ( units: m^2 ) */
(PID.TID 0000.0001)                 1.146542574196578E+10,      /* I =  1 */
(PID.TID 0000.0001)                 2.377787005983833E+10,      /* I =  2 */
(PID.TID 0000.0001)                 3.336273018972140E+10,      /* I =  3 */
(PID.TID 0000.0001)                 4.165099566747280E+10,      /* I =  4 */
(PID.TID 0000.0001)                 4.906782896008959E+10,      /* I =  5 */
(PID.TID 0000.0001)                 5.579613053300137E+10,      /* I =  6 */
(PID.TID 0000.0001)                 6.192151981164894E+10,      /* I =  7 */
(PID.TID 0000.0001)                 6.748097638954340E+10,      /* I =  8 */
(PID.TID 0000.0001)                 7.248418794208269E+10,      /* I =  9 */
(PID.TID 0000.0001)                 7.692477203447566E+10,      /* I = 10 */
(PID.TID 0000.0001)                 8.078707194826852E+10,      /* I = 11 */
(PID.TID 0000.0001)                 8.405076334249313E+10,      /* I = 12 */
(PID.TID 0000.0001)                 8.669423991218034E+10,      /* I = 13 */
(PID.TID 0000.0001)                 8.869721460381146E+10,      /* I = 14 */
(PID.TID 0000.0001)                 9.004272888354184E+10,      /* I = 15 */
(PID.TID 0000.0001)     2 @  9.071865929421040E+10,             /* I = 16: 17 */
(PID.TID 0000.0001)                 9.004272888354184E+10,      /* I = 18 */
(PID.TID 0000.0001)                 8.869721460381146E+10,      /* I = 19 */
(PID.TID 0000.0001)                 8.669423991218034E+10,      /* I = 20 */
(PID.TID 0000.0001)                 8.405076334249313E+10,      /* I = 21 */
(PID.TID 0000.0001)                 8.078707194826852E+10,      /* I = 22 */
(PID.TID 0000.0001)                 7.692477203447566E+10,      /* I = 23 */
(PID.TID 0000.0001)                 7.248418794208269E+10,      /* I = 24 */
(PID.TID 0000.0001)                 6.748097638954340E+10,      /* I = 25 */
(PID.TID 0000.0001)                 6.192151981164894E+10,      /* I = 26 */
(PID.TID 0000.0001)                 5.579613053300137E+10,      /* I = 27 */
(PID.TID 0000.0001)                 4.906782896008959E+10,      /* I = 28 */
(PID.TID 0000.0001)                 4.165099566747280E+10,      /* I = 29 */
(PID.TID 0000.0001)                 3.336273018972140E+10,      /* I = 30 */
(PID.TID 0000.0001)                 2.377787005983833E+10,      /* I = 31 */
(PID.TID 0000.0001)     2 @  1.146542574196578E+10,             /* I = 32: 33 */
(PID.TID 0000.0001)                 2.377787005983833E+10,      /* I = 34 */
(PID.TID 0000.0001)                 3.336273018972140E+10,      /* I = 35 */
(PID.TID 0000.0001)                 4.165099566747280E+10,      /* I = 36 */
(PID.TID 0000.0001)                 4.906782896008959E+10,      /* I = 37 */
(PID.TID 0000.0001)                 5.579613053300137E+10,      /* I = 38 */
(PID.TID 0000.0001)                 6.192151981164894E+10,      /* I = 39 */
(PID.TID 0000.0001)                 6.748097638954340E+10,      /* I = 40 */
(PID.TID 0000.0001)                 7.248418794208269E+10,      /* I = 41 */
(PID.TID 0000.0001)                 7.692477203447566E+10,      /* I = 42 */
(PID.TID 0000.0001)                 8.078707194826852E+10,      /* I = 43 */
(PID.TID 0000.0001)                 8.405076334249313E+10,      /* I = 44 */
(PID.TID 0000.0001)                 8.669423991218034E+10,      /* I = 45 */
(PID.TID 0000.0001)                 8.869721460381146E+10,      /* I = 46 */
(PID.TID 0000.0001)                 9.004272888354184E+10,      /* I = 47 */
(PID.TID 0000.0001)     2 @  9.071865929421040E+10,             /* I = 48: 49 */
(PID.TID 0000.0001)                 9.004272888354184E+10,      /* I = 50 */
(PID.TID 0000.0001)                 8.869721460381146E+10,      /* I = 51 */
(PID.TID 0000.0001)                 8.669423991218034E+10,      /* I = 52 */
(PID.TID 0000.0001)                 8.405076334249313E+10,      /* I = 53 */
(PID.TID 0000.0001)                 8.078707194826852E+10,      /* I = 54 */
(PID.TID 0000.0001)                 7.692477203447566E+10,      /* I = 55 */
(PID.TID 0000.0001)                 7.248418794208269E+10,      /* I = 56 */
(PID.TID 0000.0001)                 6.748097638954340E+10,      /* I = 57 */
(PID.TID 0000.0001)                 6.192151981164894E+10,      /* I = 58 */
(PID.TID 0000.0001)                 5.579613053300137E+10,      /* I = 59 */
(PID.TID 0000.0001)                 4.906782896008959E+10,      /* I = 60 */
(PID.TID 0000.0001)                 4.165099566747280E+10,      /* I = 61 */
(PID.TID 0000.0001)                 3.336273018972140E+10,      /* I = 62 */
(PID.TID 0000.0001)                 2.377787005983833E+10,      /* I = 63 */
(PID.TID 0000.0001)     2 @  1.146542574196578E+10,             /* I = 64: 65 */
(PID.TID 0000.0001)                 2.377787005983833E+10,      /* I = 66 */
(PID.TID 0000.0001)                 3.336273018972140E+10,      /* I = 67 */
(PID.TID 0000.0001)                 4.165099566747280E+10,      /* I = 68 */
(PID.TID 0000.0001)                 4.906782896008959E+10,      /* I = 69 */
(PID.TID 0000.0001)                 5.579613053300137E+10,      /* I = 70 */
(PID.TID 0000.0001)                 6.192151981164894E+10,      /* I = 71 */
(PID.TID 0000.0001)                 6.748097638954340E+10,      /* I = 72 */
(PID.TID 0000.0001)                 7.248418794208269E+10,      /* I = 73 */
(PID.TID 0000.0001)                 7.692477203447566E+10,      /* I = 74 */
(PID.TID 0000.0001)                 8.078707194826852E+10,      /* I = 75 */
(PID.TID 0000.0001)                 8.405076334249313E+10,      /* I = 76 */
(PID.TID 0000.0001)                 8.669423991218034E+10,      /* I = 77 */
(PID.TID 0000.0001)                 8.869721460381146E+10,      /* I = 78 */
(PID.TID 0000.0001)                 9.004272888354184E+10,      /* I = 79 */
(PID.TID 0000.0001)     2 @  9.071865929421040E+10,             /* I = 80: 81 */
(PID.TID 0000.0001)                 9.004272888354184E+10,      /* I = 82 */
(PID.TID 0000.0001)                 8.869721460381146E+10,      /* I = 83 */
(PID.TID 0000.0001)                 8.669423991218034E+10,      /* I = 84 */
(PID.TID 0000.0001)                 8.405076334249313E+10,      /* I = 85 */
(PID.TID 0000.0001)                 8.078707194826852E+10,      /* I = 86 */
(PID.TID 0000.0001)                 7.692477203447566E+10,      /* I = 87 */
(PID.TID 0000.0001)                 7.248418794208269E+10,      /* I = 88 */
(PID.TID 0000.0001)                 6.748097638954340E+10,      /* I = 89 */
(PID.TID 0000.0001)                 6.192151981164894E+10,      /* I = 90 */
(PID.TID 0000.0001)                 5.579613053300137E+10,      /* I = 91 */
(PID.TID 0000.0001)                 4.906782896008959E+10,      /* I = 92 */
(PID.TID 0000.0001)                 4.165099566747280E+10,      /* I = 93 */
(PID.TID 0000.0001)                 3.336273018972140E+10,      /* I = 94 */
(PID.TID 0000.0001)                 2.377787005983833E+10,      /* I = 95 */
(PID.TID 0000.0001)     2 @  1.146542574196578E+10,             /* I = 96: 97 */
(PID.TID 0000.0001)                 2.377787005983833E+10,      /* I = 98 */
(PID.TID 0000.0001)                 3.336273018972140E+10,      /* I = 99 */
(PID.TID 0000.0001)                 4.165099566747280E+10,      /* I =100 */
(PID.TID 0000.0001)                 4.906782896008959E+10,      /* I =101 */
(PID.TID 0000.0001)                 5.579613053300137E+10,      /* I =102 */
(PID.TID 0000.0001)                 6.192151981164894E+10,      /* I =103 */
(PID.TID 0000.0001)                 6.748097638954340E+10,      /* I =104 */
(PID.TID 0000.0001)                 7.248418794208269E+10,      /* I =105 */
(PID.TID 0000.0001)                 7.692477203447566E+10,      /* I =106 */
(PID.TID 0000.0001)                 8.078707194826852E+10,      /* I =107 */
(PID.TID 0000.0001)                 8.405076334249313E+10,      /* I =108 */
(PID.TID 0000.0001)                 8.669423991218034E+10,      /* I =109 */
(PID.TID 0000.0001)                 8.869721460381146E+10,      /* I =110 */
(PID.TID 0000.0001)                 9.004272888354184E+10,      /* I =111 */
(PID.TID 0000.0001)     2 @  9.071865929421040E+10,             /* I =112:113 */
(PID.TID 0000.0001)                 9.004272888354184E+10,      /* I =114 */
(PID.TID 0000.0001)                 8.869721460381146E+10,      /* I =115 */
(PID.TID 0000.0001)                 8.669423991218034E+10,      /* I =116 */
(PID.TID 0000.0001)                 8.405076334249313E+10,      /* I =117 */
(PID.TID 0000.0001)                 8.078707194826852E+10,      /* I =118 */
(PID.TID 0000.0001)                 7.692477203447566E+10,      /* I =119 */
(PID.TID 0000.0001)                 7.248418794208269E+10,      /* I =120 */
(PID.TID 0000.0001)                 6.748097638954340E+10,      /* I =121 */
(PID.TID 0000.0001)                 6.192151981164894E+10,      /* I =122 */
(PID.TID 0000.0001)                 5.579613053300137E+10,      /* I =123 */
(PID.TID 0000.0001)                 4.906782896008959E+10,      /* I =124 */
(PID.TID 0000.0001)                 4.165099566747280E+10,      /* I =125 */
(PID.TID 0000.0001)                 3.336273018972140E+10,      /* I =126 */
(PID.TID 0000.0001)                 2.377787005983833E+10,      /* I =127 */
(PID.TID 0000.0001)     2 @  1.146542574196578E+10,             /* I =128:129 */
(PID.TID 0000.0001)                 2.377787005983833E+10,      /* I =130 */
(PID.TID 0000.0001)                 3.336273018972140E+10,      /* I =131 */
(PID.TID 0000.0001)                 4.165099566747280E+10,      /* I =132 */
(PID.TID 0000.0001)                 4.906782896008959E+10,      /* I =133 */
(PID.TID 0000.0001)                 5.579613053300137E+10,      /* I =134 */
(PID.TID 0000.0001)                 6.192151981164894E+10,      /* I =135 */
(PID.TID 0000.0001)                 6.748097638954340E+10,      /* I =136 */
(PID.TID 0000.0001)                 7.248418794208269E+10,      /* I =137 */
(PID.TID 0000.0001)                 7.692477203447566E+10,      /* I =138 */
(PID.TID 0000.0001)                 8.078707194826852E+10,      /* I =139 */
(PID.TID 0000.0001)                 8.405076334249313E+10,      /* I =140 */
(PID.TID 0000.0001)                 8.669423991218034E+10,      /* I =141 */
(PID.TID 0000.0001)                 8.869721460381146E+10,      /* I =142 */
(PID.TID 0000.0001)                 9.004272888354184E+10,      /* I =143 */
(PID.TID 0000.0001)     2 @  9.071865929421040E+10,             /* I =144:145 */
(PID.TID 0000.0001)                 9.004272888354184E+10,      /* I =146 */
(PID.TID 0000.0001)                 8.869721460381146E+10,      /* I =147 */
(PID.TID 0000.0001)                 8.669423991218034E+10,      /* I =148 */
(PID.TID 0000.0001)                 8.405076334249313E+10,      /* I =149 */
(PID.TID 0000.0001)                 8.078707194826852E+10,      /* I =150 */
(PID.TID 0000.0001)                 7.692477203447566E+10,      /* I =151 */
(PID.TID 0000.0001)                 7.248418794208269E+10,      /* I =152 */
(PID.TID 0000.0001)                 6.748097638954340E+10,      /* I =153 */
(PID.TID 0000.0001)                 6.192151981164894E+10,      /* I =154 */
(PID.TID 0000.0001)                 5.579613053300137E+10,      /* I =155 */
(PID.TID 0000.0001)                 4.906782896008959E+10,      /* I =156 */
(PID.TID 0000.0001)                 4.165099566747280E+10,      /* I =157 */
(PID.TID 0000.0001)                 3.336273018972140E+10,      /* I =158 */
(PID.TID 0000.0001)                 2.377787005983833E+10,      /* I =159 */
(PID.TID 0000.0001)     2 @  1.146542574196578E+10,             /* I =160:161 */
(PID.TID 0000.0001)                 2.377787005983833E+10,      /* I =162 */
(PID.TID 0000.0001)                 3.336273018972140E+10,      /* I =163 */
(PID.TID 0000.0001)                 4.165099566747280E+10,      /* I =164 */
(PID.TID 0000.0001)                 4.906782896008959E+10,      /* I =165 */
(PID.TID 0000.0001)                 5.579613053300137E+10,      /* I =166 */
(PID.TID 0000.0001)                 6.192151981164894E+10,      /* I =167 */
(PID.TID 0000.0001)                 6.748097638954340E+10,      /* I =168 */
(PID.TID 0000.0001)                 7.248418794208269E+10,      /* I =169 */
(PID.TID 0000.0001)                 7.692477203447566E+10,      /* I =170 */
(PID.TID 0000.0001)                 8.078707194826852E+10,      /* I =171 */
(PID.TID 0000.0001)                 8.405076334249313E+10,      /* I =172 */
(PID.TID 0000.0001)                 8.669423991218034E+10,      /* I =173 */
(PID.TID 0000.0001)                 8.869721460381146E+10,      /* I =174 */
(PID.TID 0000.0001)                 9.004272888354184E+10,      /* I =175 */
(PID.TID 0000.0001)     2 @  9.071865929421040E+10,             /* I =176:177 */
(PID.TID 0000.0001)                 9.004272888354184E+10,      /* I =178 */
(PID.TID 0000.0001)                 8.869721460381146E+10,      /* I =179 */
(PID.TID 0000.0001)                 8.669423991218034E+10,      /* I =180 */
(PID.TID 0000.0001)                 8.405076334249313E+10,      /* I =181 */
(PID.TID 0000.0001)                 8.078707194826852E+10,      /* I =182 */
(PID.TID 0000.0001)                 7.692477203447566E+10,      /* I =183 */
(PID.TID 0000.0001)                 7.248418794208269E+10,      /* I =184 */
(PID.TID 0000.0001)                 6.748097638954340E+10,      /* I =185 */
(PID.TID 0000.0001)                 6.192151981164894E+10,      /* I =186 */
(PID.TID 0000.0001)                 5.579613053300137E+10,      /* I =187 */
(PID.TID 0000.0001)                 4.906782896008959E+10,      /* I =188 */
(PID.TID 0000.0001)                 4.165099566747280E+10,      /* I =189 */
(PID.TID 0000.0001)                 3.336273018972140E+10,      /* I =190 */
(PID.TID 0000.0001)                 2.377787005983833E+10,      /* I =191 */
(PID.TID 0000.0001)                 1.146542574196578E+10       /* I =192 */
(PID.TID 0000.0001)     ;
(PID.TID 0000.0001) rAs =  /* rAs(1,:,1,:) ( units: m^2 ) */
(PID.TID 0000.0001)                 1.146542574196578E+10,      /* J =  1 */
(PID.TID 0000.0001)                 1.953030837147821E+10,      /* J =  2 */
(PID.TID 0000.0001)                 2.933967873337320E+10,      /* J =  3 */
(PID.TID 0000.0001)                 3.796176706541101E+10,      /* J =  4 */
(PID.TID 0000.0001)                 4.567569462064098E+10,      /* J =  5 */
(PID.TID 0000.0001)                 5.267377164042021E+10,      /* J =  6 */
(PID.TID 0000.0001)                 5.905615583203223E+10,      /* J =  7 */
(PID.TID 0000.0001)                 6.487043381386549E+10,      /* J =  8 */
(PID.TID 0000.0001)                 7.013339442433482E+10,      /* J =  9 */
(PID.TID 0000.0001)                 7.484316069116351E+10,      /* J = 10 */
(PID.TID 0000.0001)                 7.898662143005907E+10,      /* J = 11 */
(PID.TID 0000.0001)                 8.254445101987663E+10,      /* J = 12 */
(PID.TID 0000.0001)                 8.549478360691351E+10,      /* J = 13 */
(PID.TID 0000.0001)                 8.781604517750543E+10,      /* J = 14 */
(PID.TID 0000.0001)                 8.948917519517891E+10,      /* J = 15 */
(PID.TID 0000.0001)                 9.049933392602551E+10,      /* J = 16 */
(PID.TID 0000.0001)                 9.083715262395342E+10,      /* J = 17 */
(PID.TID 0000.0001)                 9.049933392602551E+10,      /* J = 18 */
(PID.TID 0000.0001)                 8.948917519517891E+10,      /* J = 19 */
(PID.TID 0000.0001)                 8.781604517750543E+10,      /* J = 20 */
(PID.TID 0000.0001)                 8.549478360691351E+10,      /* J = 21 */
(PID.TID 0000.0001)                 8.254445101987663E+10,      /* J = 22 */
(PID.TID 0000.0001)                 7.898662143005907E+10,      /* J = 23 */
(PID.TID 0000.0001)                 7.484316069116351E+10,      /* J = 24 */
(PID.TID 0000.0001)                 7.013339442433482E+10,      /* J = 25 */
(PID.TID 0000.0001)                 6.487043381386549E+10,      /* J = 26 */
(PID.TID 0000.0001)                 5.905615583203223E+10,      /* J = 27 */
(PID.TID 0000.0001)                 5.267377164042021E+10,      /* J = 28 */
(PID.TID 0000.0001)                 4.567569462064098E+10,      /* J = 29 */
(PID.TID 0000.0001)                 3.796176706541101E+10,      /* J = 30 */
(PID.TID 0000.0001)                 2.933967873337320E+10,      /* J = 31 */
(PID.TID 0000.0001)                 1.953030837147821E+10       /* J = 32 */
(PID.TID 0000.0001)     ;
(PID.TID 0000.0001) globalArea = /* Integrated horizontal Area (m^2) */
(PID.TID 0000.0001)                 5.098642104278460E+14
(PID.TID 0000.0001)     ;
(PID.TID 0000.0001) // =======================================================
(PID.TID 0000.0001) // End of Model config. summary
(PID.TID 0000.0001) // =======================================================
(PID.TID 0000.0001) 
(PID.TID 0000.0001)  MDSREADFIELD: opening global file: U.input.20Lev
(PID.TID 0000.0001)  MDSREADFIELD: opening global file: V.input.20Lev
(PID.TID 0000.0001)  MDSREADFIELD: opening global file: T.input.20Lev
(PID.TID 0000.0001) // =======================================================
(PID.TID 0000.0001) // Field Initial Temperature at iteration          1
(PID.TID 0000.0001) // CMIN =          2.691107858050743E+02
(PID.TID 0000.0001) // CMAX =          3.112181164521968E+02
(PID.TID 0000.0001) // CINT =          1.559530764708242E+00
(PID.TID 0000.0001) // SYMBOLS (CMIN->CMAX): -abcdefghijklmnopqrstuvwxyz+
(PID.TID 0000.0001) //                  0.0: .
(PID.TID 0000.0001) // RANGE I (Lo:Hi:Step):(   1: 192:   1)
(PID.TID 0000.0001) // RANGE J (Lo:Hi:Step):(  32:   1:  -1)
(PID.TID 0000.0001) // RANGE K (Lo:Hi:Step):(   1:   1:   1)
(PID.TID 0000.0001) // =======================================================
(PID.TID 0000.0001) K =   1
(PID.TID 0000.0001)                I=10      I=20      I=30      I=40      I=50      I=60      I=70      I=80      I=90      I=100     I=110     I=120     I=130     I=140     I=150     I=160     I=170     I=180     I=190
(PID.TID 0000.0001) |--J--|123456789|123456789|123456789|123456789|123456789|123456789|123456789|123456789|123456789|123456789|123456789|123456789|123456789|123456789|123456789|123456789|123456789|123456789|123456789|12
(PID.TID 0000.0001)     32 jjkjjjjjihhhiiiihgfffghijjjjjkkllllkkjiihgghiijjiihgghhhhhhjjjkjjjiiiiiihhhhgggggffeefgghhijjjkklllmnoprstuvxyz+zzyxvutsrqpomllkjklmmnpqrstvwxyzzyxwvutrqponmlllkjjiiiihhgfffggfffffffghhghiiijj
(PID.TID 0000.0001)     31 llkkkkjjjjiiijjjihhgghijjkkkkklmllllkkjihhhjjkkkkkiiiiiihhikkkkkjiihhhgggfffffffffedeeffghiijjjkllmmnopqstuvxyzzzzyxvutsrqponmlljklmmnoqrrtuwxyzzyxxvutrqqponmmljjihhhgggfeeffeeeeeeeefggggghiii
(PID.TID 0000.0001)     30 lllkkkkkkjjjkklkjiihghjjkllllmmmmmlllkjjiijkklllkkkjjjiiiijkkkkljihgggffeeeeeefffedddeefgghiiiijkmmnoopqrtuvwyyzzyywvutssrponmlljklmnnoprstuvxyzzyxxvusrrqpoonmljihhhggffeedeeddeddeeeffffffghhi
(PID.TID 0000.0001)     29 mllllllllkklmnmlkjjiijkllmmmnnnnmmmllkkkkklmmmmllllkkjjjjjkllllmihggfeeddddddeeffedcddeefgghgghjklmooppqstuvwxyzzyxxvuttsrqpommljklmnoopqstuvxyzzyxwvussrrqponlkjihhggffeddddddddddddeeffeefgghh
(PID.TID 0000.0001)     28 mnnnnnnmmmnnoonmlkkjjklmnnnopooonmmmmmmllmnnnnmllmmllkkkklmmmnnniigfeddccccddddeeedccddeffggfghiklmnppqrstuwwxyzzyxwvuttsrqponmljkmnoopqrstuwxyzzyxwvussrrqponljjihgffeeeddddcccddddddeeeeeffggg
(PID.TID 0000.0001)     27 oooopooooooooonmmmmllmnoooopqpooonoonnnmnnnnooonnnnmllllmnooooooihhgeddccccccccccccccddeeffeffgiklmnopqrstuwwxyzzyxwwvutsrqpomlkjlnooppqrstuwxyzzyxwvutssrqponljihgffeeeddddccccccccccdddeeffggg
(PID.TID 0000.0001)     26 pqppppppqqppooonnnnnnnpqqqqqqqpppppppoooooopppqppoonnmnnopqqqqqqihhgfedccbbbbcbbbbccccddeeeeefgiklmnoprsstuwxyzzzyyxwvutsrqpnmljklnoppqqrssuvxyzzyxwvutsrqponlkjihgfeeddccccccccccccccddddefffgh
(PID.TID 0000.0001)     25 qqqpqqrrrqqppppppooopqrrrrrrrqqqpqqqqppqqqqqqrrrqpppoopqqrrsssrriihhfedccbbbbbbbbbbbcccddeeeeffhjklmnoqrstvwxyzzzyyxwvutsrponllkkmnoppqqrstuvwyzzyywvutsrqpnlkkihhfeedddcccbbccbcccccccddddeffgh
(PID.TID 0000.0001)     24 rrrrrsssrrrqqqqqqqqrsssssrrsrrrrrrrrrrrrrrssstssrrrqqqrsstttttttihhgfedcbbbaaaaabbbbbbccddeeeefgijlmmopqrsuwxyzzzzyxwvutsqpommlkjlmoppqqrstuvwyzzzywvutrqpomlkjihhgedddddccbbbbbccbbbbbbccdeefgh
(PID.TID 0000.0001)     23 sssstttsssrrrrrrrrsttttttsstssssssssssssstttuuutttssssttuuuuuuuvgggfedcbbbbaaaaaabbbbbbccdddeefghjklmnoqrsuvwyyzzzyxwvutrqpnmmlkjkmnopqqrstuvwyzzyywvusqponmkjihhhgedcccccbbbbbbbbbbbbbbbbcdefgg
(PID.TID 0000.0001)     22 tttuuutttsssssttttuvuutttttuuttttttttttuuuuvvvvvuuuuuuuvvvvvvvwwgffeddcbbbbaaaaaaabbbbbbcccddeefhiklmnoprsuvwxyzzzyyxvutrqpnmlkjiklmnopqrstuvwxyzyxwutrqponlkjjhggfeddccccbbaaaabbbaaaaabbcdefgg
(PID.TID 0000.0001)     21 vvvvvvvuuttttuuuvvwvvuuuuuuvvvvvvvvvvvvvvvwwwwwwvvvvvvvwwwwwwwxxgffedccbbbaaaaa-aabbaabbbcccdefghijklmoprsuvwxyzzzyxwvutsqpnmkjiijkmnnopqstuwwxyyyxwutrqpnmlkkjhgfeedcccbbbaaaaaaaaaaaaabbcdefff
(PID.TID 0000.0001)     20 wwwwwwwvvvuuvwwwwwxwwvvvvwwwwwwwwwwwwwwwwxxxxxxxxwwwwwxxxxxxxxyyhfedcccbbbaaaaa-aaaaaabbbccddefghhijklnprsuvwxyzzzyxwvutrqonljihijklnoopqrsuwxxyyyxwvtrqpnnmljjhgfeddccbbaaaaaaaaaa--aaabbbcdeef
(PID.TID 0000.0001)     19 yyyxxxxxwwwwxxxxxxxxxxxxxxxxxxxxxxyyxxxxyyyyyyyyyxxxxxyyyyyyyyyzhfddccbbbbaaaa---aaaaabbbcddeeefghiijkmoqstvvwyzzzyxwvtsqpnljihhijklmopprrsuvxxyyyxwvusqponmljjihfedcccbbaaaaaaaaaa--aaabbbcddef
(PID.TID 0000.0001)     18 yyyyyyyyyyyyyyyyyyyyyyyyyyyyyyyyyyyyyyyzzzzzzzzyyyyyyzzzzzzzzzzzhfedccbbbaaaa---aaaaaabbbccdeeeefghijkloqstuvwyzzzyxwusrpnlkjhgghiikmnpqrssuvxyyyxxwvusrppomlkjihfdccccbaaaa-aaaaaa-aaabbbbcddde
(PID.TID 0000.0001)     17 zzzzzyyyyzzzzzzzzzzzzzzzzzzzzzzzzzzzzzzzzzzzzzzzzzzzzzzzzzzzzzzzhgedccbbaaaaa---aaaabaabbbbceefffghikkloqstuvwyzzzyxvtsromlkihgfghijlnoqrstuwxyyyyxwvtsrqpomlkjhgfdccccbaaa----aaaaaaaabbbcccdde
(PID.TID 0000.0001)     16 zzzzzzzzzzzzzzzzzzzzzzzzzzzzzzzzzzzzz++zzzzzzyzzzzzzzzzzzzzzzzzzgfedccbbaaaaa---aaaaaaaabbbcdeefgghjklmoqstuvwyzzzywutsqonmkihgfgghjkmoqrstuwxyyyyxwvtsrqpomlkigffdcccbbaaa-----aaaaaaabbbcccdde
(PID.TID 0000.0001)     15 yyyyyyzzzyyyyyyyyyyyyyyyyyyyyyyyyzzzzzzzyyyyyyyyyyyyyyyyzzzzzzzyffedcccbaaaaa---aaaaaaaabbbccddegghjkmnpqstuvxyzzzxwutrqpomkihgggghikmoqrtuvwxyyyyxwvtsrqponljiggfdcccbbaaa------a-aaaaabbcccdde
(PID.TID 0000.0001)     14 xyyyyyyyyyyxxxxxxyyyxxyxxxxxxyyyyyyyyyyyyyyyxxxxxxxxxxxxxyyyyyyyeeeddccbaaaaa---aaaaaaabcccccddefhhjlmoprstvwxyzzyxwutrqpomkjihgghhjkmoqstuvwxyyyyxwvtsrrponljihgfdccbbaaaaa----aaaaaaabbbcccdde
(PID.TID 0000.0001)     13 xxxwwxxxxxxwwwwwwxxxxxxwwwwwwxxxxxxxxxxxxxxxxxwwwvwwwwwwwwxxxxxxeeeddccbaaaaa----aaaaaabcccccdeffhijlnoqrsuvwxyzzyxvusrqpomkjihhfgijlmoqstuvwxyyyyxwvtssrqomljihgeddccbaaaaaaaaaaaaaabbbbbcccdee
(PID.TID 0000.0001)     12 vvvvvvvwwwwvvvvvwwwwvvvvvvvvvvvwwwwwwxwwwwwwwwvvvvuvvvvvvvwwwwwwfeeddccbbaaaaa---aaaaabbcccccdefgiklmnoqrsuvwxyzzyxvtsrqponljiihegijlmoqstvwxxyzzyxwvttssqomljhhgeddccbaaaaaaaaaaaabbbbbccccddee
(PID.TID 0000.0001)     11 uuuuuuuvvvvuuuuuuvvvuuuuutttuuuuvvvvvwwvvvvvvvuuuuuttuttuuuvvwvvfefeddccbbaaaaa-aaaaaabbcccccdfghjlmnoprstuvwxyzzyxvtsrrponlkjiiefhjlnoqsuvwxyyzzyxwvuttsqomkjhggeddcbbaaaaaaaaaaabbbbccccccddef
(PID.TID 0000.0001)     10 tsssssstttuttttttuuutttttssssstttuuuuuvvuuuutttttttssssssttuuvuugggfedcccbbaaaaaaaaaabbbcddddefhikmnooqrstuvwxyzzywvtssrqpnlkkjjfghjmnpqsuvwxyzzzyxwvvutsqomkihhgeddcbbaaaaaabbabbbbbcccccccdefg
(PID.TID 0000.0001)      9 rrqqqqqrssssssssstttsssrrrrrrrrsssstttuuuttttsssssrrqqrqrrssttuthhgfeddccccbbaaaaabbbbbccdddefghikmnopqrtuuvwxyzzywvttsrqpomkkkjghikmopqsuvwxyzzzyxxwvutrqolkjihfeddccbbbbbbbbbbbbbbcccccdddefgh
(PID.TID 0000.0001)      8 qppooooopqrrrrrrrssrrrqqqqqqqqqqrrrrsssttsssssrrqqpppppppqqrssttihgfeedddccccbbbaaabbbbbcdddfghijkmnpqrstuvwxxyzzyxvutssrqomlllkiijlnopqstvwyyzzzzyxwvutrqolkjigfeedccccbbcccccbbbbcccccdeeefghi
(PID.TID 0000.0001)      7 poonnnmmmnopqqpqqrqqqqppqqpppppppqqqqqrrsrrrrqpppponnnoooopqqrssihggfeedddcccccbbbbbbbbbcddefhijklmnpqsstuvwxyzzzyxvuttsrqpnmmlkiklmnpqrstvxyzz+zzyxwvutrpnmlkjhgfeedccccccccccbbcccccddeeffgghi
(PID.TID 0000.0001)      6 oonmmmlllllnoopppppppooopppopppoooppoppqqqqpoooooonmlllnnnooppqrihhggfeeddccccccccccbccccddefgijlmmnprstuuvwxyzzzyxvuttsrqpommmljkmnopqrsuvxyzz++zyxxwvtrpomlljihffeeddddddddccccdddddeeefffgghj
(PID.TID 0000.0001)      5 nnmmllkkkkjlmnooooooonnnooonoooonnooonnoooonnmmnnnmlkkklmmnnnoopiihhggfeedddddddddddccccddeeeghjlmnnoqstuvwwxyzzzyxwvutsrrqpnmmlkkmnoqrstuvxyz+++zyxxwvtrponmlkjihgfffeeefffeddddddeeeeeefggggij
(PID.TID 0000.0001)      4 llllkkjjjjijklmmmlmmmmllmmnnnnnnnmnnnmmmmmlllllkllllkjjjllmmnmmniihhhhgffeeeeeeeeeeedddddeeefgijklnnoqstuvwxxyzzzyywvutsrrqpnmmlkklnpqrstuvxyz+++zyxxwusqpomllkjjihhhgffgggfeeedddeeeefffffgghij
(PID.TID 0000.0001)      3 lllkjjjjihhhjkjjjjjkkkkkkklmmmlllllllllllkkkkjjiijjjjiiiklllmmlmjjiiihhggfeffffeeefeeeeeeefghijjklmnoprtuvwxyyzzzyyxwvtssrqpnmmlkklnpqrstuwxyz+++zyxwvtsqpomllkkjjjihhghhhggfeeddeefefhggggghiij
(PID.TID 0000.0001)      2 lkkkjjijihgghiiiiiijjjjjjjkkkkkkkkkjjkkjjjjiihhggghhhhhijkkkklllkjjjiihhggffgggffffeefffgfghijjjkklmnprtuvwxyzzzzyyxwvutssrpnmmkkklnoqrssuvxyz+++zyxwutsqponmllkkjjjihhhiihhgfeeeeffghihhhhiijjk
(PID.TID 0000.0001)      1 kkjjiiiiihgfghhhhgghhhhiiiijjjjjjjiihiiiihhgggfffffggghhijkjjkkkkkkjjiihhgfgghihgggfffgggggijjjjkklmnoqsuvwxyzzzzyyxwvutssrpnmlkkllmopqrstuwyzz++zyxwutsrqpnmllkkkkkjiiijjihhgfffffghiiijjjkkkkk
(PID.TID 0000.0001) // =======================================================
(PID.TID 0000.0001) // END OF FIELD                                          =
(PID.TID 0000.0001) // =======================================================
(PID.TID 0000.0001) 
(PID.TID 0000.0001)  MDSREADFIELD: opening global file: RH.input.20Lev
(PID.TID 0000.0001) // =======================================================
(PID.TID 0000.0001) // Field Initial Salinity at iteration          1
(PID.TID 0000.0001) // CMIN =          6.688321003390099E-04
(PID.TID 0000.0001) // CMAX =          3.009632860529917E-02
(PID.TID 0000.0001) // CINT =          1.089907277961487E-03
(PID.TID 0000.0001) // SYMBOLS (CMIN->CMAX): -abcdefghijklmnopqrstuvwxyz+
(PID.TID 0000.0001) //                  0.0: .
(PID.TID 0000.0001) // RANGE I (Lo:Hi:Step):(   1: 192:   1)
(PID.TID 0000.0001) // RANGE J (Lo:Hi:Step):(  32:   1:  -1)
(PID.TID 0000.0001) // RANGE K (Lo:Hi:Step):(   1:   1:   1)
(PID.TID 0000.0001) // =======================================================
(PID.TID 0000.0001) K =   1
(PID.TID 0000.0001)                I=10      I=20      I=30      I=40      I=50      I=60      I=70      I=80      I=90      I=100     I=110     I=120     I=130     I=140     I=150     I=160     I=170     I=180     I=190
(PID.TID 0000.0001) |--J--|123456789|123456789|123456789|123456789|123456789|123456789|123456789|123456789|123456789|123456789|123456789|123456789|123456789|123456789|123456789|123456789|123456789|123456789|123456789|12
(PID.TID 0000.0001)     32 eeeeeeeedddddddddcccccdddddddccdddddcccbbbbcccccbbbbbbbbbccdddeeddddddddddccccccccbbbbccccddeeeeffffghijklnqtwxyxwuspnmlkjihfffeeefffghjjkmortwxxwvtrpnmkhgffffeeedddddddcccccccccccccdddddddddd
(PID.TID 0000.0001)     31 eeeeeeeeeedddeeddcccccdddeeeddccddddcccccbddcccbbbbbbbbcbcdeeeeedddddddcccccccccccbbbcccccddedeefffggghjklnpsvwxxwurpnmlkjihgfffeeffgghijkloqtwxyxvsqpnlkjhgfffeedddddddcccccccccccccccccccddddd
(PID.TID 0000.0001)     30 fffeeeeeeeeeeefedddccdddeeeeeddccdddcccccceeecceeeddccccbcdeeeeeddddccccccbbbbcccbbbbbccccdddddeefgghhijkmnpsuwxxvtrpomlkjihggffeeffgghijkmnqtxyyxvtqnlkkkjhgffeedddddcccccccccccccccccccccccddd
(PID.TID 0000.0001)     29 fffffffffeefffeeeedccdeeeeefeedcccddcccddddgggfeeeeedccdcdeeffffdddcccbbbbbbbbcccbbbbbbccccdddddefghhiijkmoprtvwwvtrponmlkihhgffeefgghhijkmnqtxzyxvtqnlkjjjigfeeeddddccccbbbbbbbbbbbbcccccccccdd
(PID.TID 0000.0001)     28 gggggggfffggggfeedcccddddddffedccccddddddefeggfffffeeddddeffggggdddccbbbbbbbbbbbbbbbbbbcccccccddefghiijkkmoqstvwwvtrqonmlkjihggfeffghhiijkmorvyzywusqnlkjjihgfeddddcccccccbcbbbbbbbbbbcccccccccd
(PID.TID 0000.0001)     27 hhhhhhggghggfeedcccddddddddefeddccceeeddeffgfggggggfedfffgghhhhhdddcccbbbbbbbbbbbbbbbbbcccccccddefgghijklmoqsuvwvvtrqonmlkjihgfeefghhiijklmoswzzywusqnlkjihhgfdddddccccccbbbbbbbbbbbbbbccccccccd
(PID.TID 0000.0001)     26 iiihhhhiihgfedcccdddcddcccdeedeedcdffffdeffghgiiiiggfegghhiiijiiddddccbbbbbbbbbbbbbbbbbccccccccdefgghikllmoqsuwwvvtsqpnmlkjhgffeefghhijjkkmorw++ywuspnmlkihgfeddcccccccbbbbbbbbbbbbbbbbccccccccd
(PID.TID 0000.0001)     25 jjiiiiiiihfeedcccddddddccccddeeddcdefggggghhiijjjjhhgihhijkkkkjkedddccbbbbbbbbbbbbbbabbbbccccccdeffghijklmoqsuwwwvusqpnmljihgffeegghhiijklmorws+ywurqqlligigeddccccccbbbbbbbbbbbbbbbbbbbbbcccccd
(PID.TID 0000.0001)     24 jjjjjjjihgfeddcccddddeecccddeffedcdefghhiijjkllkkkiihkjjlmmmmllmddddccbbbbbbabaaabbaabbbbbccccccdeffghijklnqsuvwwvutrpnmkjhhgfffefghiiijklmorvwxwvtsoqjhgggeddccccccbbbbbbbbbbbbbbbbbbbbbbbccccd
(PID.TID 0000.0001)     23 lkkkkkjihgfedddddeffedddddefhiiffeefhiijjjklmmmmllnnmmlmnonnnnnodcccccbbbaaaaaaaaabaabbbbbbbccccdeefggijklnpruvwwvvtrpnlkjhhgfffefghhiijklnonqywwuutmkjgeggfeedcbcccbbbbbbbbaaa-aaaaaaabbbbccccd
(PID.TID 0000.0001)     22 mmmmllkjhgggfffffghgfefgggghiikkhgiijkklllnoonnnmmmnnoooppppppqqcccccbbbbaaaaaaaaabaaabbabbbccccddeffghiklnoqtvwwwvtrpnlkjhhgfeedefghhijjlmosrstwvuokkgeeeddeeddccbbbbbbbbbaaaaaaa--aaabbbbccccd
(PID.TID 0000.0001)     21 ooonnmlkjiijjjjjjkkjiijkkkklmmklmlklmnnnoopqqqppponooprrrrqqqrssdcccbbbbbaaaaaaaaaaaaabbbbbbbcccddeefghiklnoqsuwwwvtrpnmkjhhgfeddeefghhijkmoptyutsqnjggffffeeeeedccccbbbbbaaaaaaaaa---aabbbbcccc
(PID.TID 0000.0001)     20 rrrqpoonlllnoonnnoppnmmooooqqqompoppppqqqrstssssrqqqqqrsssssstttdccbbbbbba-aaaaaaaaaaabbbbbbccccddddefgiklnoqsuvwwvtrpnmkihgfeddddeeghhiikloqstwzrskihhggfffeeddddccbbbbbaaaaaaaaaaaaaaabbbbbccc
(PID.TID 0000.0001)     19 ttttsrqqppppssrqqrsutsrssrstssqtrrrrsssstuuuuutttssttttuuuuuuuuudcbbbbbbbaaaaaaaaaaaaababbbccccccdddeefhjlnoqruvwwvtromkjhgfedddddeffggijkmorsssspnkjjihhgggfeeddccbbbbbaaaaaaaaaaaaaaaaabbbbbcc
(PID.TID 0000.0001)     18 vvvuutttttttuutttstwwvvvvwxxtswutttuuuuvvvvvuuutttvwvvvvxxwvvvvvcccbbbbbbaaaaaaaaaaaaaabbbbccccccdddeefhjlmoprtvwwvtqnkjigfeddcccddeeghijlnppstsqpmlkjiihhhgfeeddccbbbbbbaaaaaaaaaaaa-aaabbbbbcc
(PID.TID 0000.0001)     17 wxxwwvvvvvvvvvvvvuvxyyxxy+uuutwvvuvvwwwwwvvuuuuuuuuxxwvy+ywvvvvvdccbbbbbbbbaaaaaaaaaaaabbbbbccccccddeefhjlmopruvvvusomkjhgfeddccccddeghiklonqstsrpnllkjiihhgfeeddcbbbbbbaaaaaaaaaaaaaa-aabbbbbcc
(PID.TID 0000.0001)     16 wxxxxwwwvvvvuuuuuuuxyyyyzvvvvuwwvvwwwxwwvvuuuuuuuvuvxwvxyxwvvuvwdccbbbbbbbbaaaaaaaaaaaaaaabbbcccccddefghjlmopruvvvtromkihgfeddcccccddegijmoorstsrqomlkjiihhgfeddcccbbbbbaaaaaaa-aaaaaaaaabbbbbcc
(PID.TID 0000.0001)     15 wxwwwwwwvvuttsrrrrstwxxxxtttttwvvvvvwwwvuuuttttttuuuuvvvvvvvuuutcccbbbbbbbbaaaaaaaaaaaaaaabbbbcccdddefgijlmoprtvvvtqomkihgfedddccccddegikmlorsttsronlkjjiihgfeddcccbbbbbaaaaaaaa--aaaa-aabbbbbbc
(PID.TID 0000.0001)     14 vwwwvuvvutsrqpooopppsvvvvqqqrxvtttuuuvuttttttsssrrsstsssstttttttbccbbbbbaabaaaaaaaaaaaaababbbbbccdddfghiklnoprtvvusqnljihgfeedddcccdeefikjlorsttsrpnmkjjjihgfedddccbbbbbaaaaaaaa-aaaaa-aabbbbbbc
(PID.TID 0000.0001)     13 tuuusssssrqponmmmmmmoooooooooussrsssttsssssssrrqqpqqqqpppqrrrrrrbccbbbbaaabaaaaaaaaaaaaaabbbbbcccddefghiklnoqrtvvuspnljihggeedddbbcceffhjkmprttttsqomlkkkihgfeddcccbbbbbaaaaaaaaaaaaaaaabbbbbbcc
(PID.TID 0000.0001)     12 rssqpppppponmmllkkjkommmmmmmsrqqqqqqrrrqqqqqqqppoooooonnnnopppppcccbbbbbbabbaaaaaaaaaaaabbbbbbcccdeffghjklnoqstvvurpmljihggfeeddbccddeghjknqstuutsqomllkkjhffeddccbbbbbbaaaaaaaaaaaaaaaabbbbbccc
(PID.TID 0000.0001)     11 pppnnnnnnnnmlllkjjihkkkkkkkkponnnppoppppooooonnnnmmmllllllllmmmmccccbbbbbbbbaaaaaaaaaabbbbbbbbccdefgghijlmnoqsuvvuromljjhhgfeeedbbcdefgjiknqsuuuutrpnmmlljhfeeddcccbbbbbbaaaaaaaaaaaaaabbbbbbccc
(PID.TID 0000.0001)     10 nnmlkklmmmmlkkkjjjiggiimliinmlklnonnnnoonnmmmllllllkkkjjjijjklkkcdccbbbbbbbaaaaaaaaaabbbabbbbccddefgghiklmnprsuvvuromlkjihgfeeeecccdehghiknqtuvvutrponnmkihfedddcccbbbbbbbaaaaaaaaaaaaabbbbbbccc
(PID.TID 0000.0001)      9 lkjiiijjkkkkkjjjjiigfgggjhhkkiijmmlllmmnmmlllkkkkkjjiiihhhghiiiiccccbbbbbbbbbaaaaaaaaaabbbbbbccddefghijklnoprsuvvuromlkjihgfeeeeccceegghiknrtvvvvusqponmkihfeeddccbbbbbbbbbbbbbbabaabbbbbbbbccdd
(PID.TID 0000.0001)      8 jhhhhgghijjkjjiiiiihfgggggkjihhhkjjjkkllllkkkkjjjihhhhhgfgggghhhdcccbbbbbbbbbbaaaaaaaaabbbbbccddeefghjjklnoqrtuvvuronmkjjhgfeeeeddddefghiknruvwwwutrponmkihfeeddcccbbbbbbbbbbbbbbbbbbbbbcccccddd
(PID.TID 0000.0001)      7 hgggggffgghiiiiiiihgggfgggghhhhhiiiiijjkkkjjjihihhggffggfffffgggdccccbbbbbbbbbbbaaaabbbbbbbbccdeeffghjklmnoqstuvvurpnmlkjhhgfffeddeefghhjloruvxxwvtsqpnmkigffeddccccbbbbbbbbbbbbbbbbbbbbcccccddd
(PID.TID 0000.0001)      6 gggffffffffghhhhhhhhffhfggihhhhhhhhhhhhijjihhhghhggffeeffeeeefffdccdcbbbbbbbbbbbbbbbbbbbbbbbccddefgghjkmnoprstvvvuspnmlkiihgffffdeefghiijlosuwxyxvusqpomkihgffeddccccccbbcccbbbbbbbccccccccccdde
(PID.TID 0000.0001)      5 fffffeeeeeeegghhhghhgfefffgfggggggghggghhhgggggggggfeeeeeeeeeeeedccdcbbbbbbbbbbbbbbbbbbbbbbbcccdefgghjkmnoprstvwvutqomlkihgfefffeeffghijkmosuwyyxwusrqomjihgffeeddcccccccccccbbbbcccccccccccddde
(PID.TID 0000.0001)      4 fffeeeeeedddeffffffgffeeeefffgfffffggfffgffffffeffffeedeeeeeeeeeddddcbbbbbbbbbbcbcbbbbbbbbbbccdeefgghikmnpqrtuvvvvxspnljihgfeeeeeefghiijlmpsvwyyywutrpnljihgfeeeedddddcccccccccbbcccccccccccddde
(PID.TID 0000.0001)      3 eeeeedddddddeeeeeeeeffeeeefffffffffffffffeeeeeeddeeeedddeeeeeeeedddcbbbbbbbbbccccccbbbbbbbbbcddeeefggiklnprstuvvvyrspnkihgfeeeeeeeeghijjlnpsuwyzyxvtrpmljihgffeeeeedddddddddccccbcccccddddcddddd
(PID.TID 0000.0001)      2 eeeeedddddccdddddddeeeeeeeeeeeeeeeeeeeeeeeeeddddcdddddddeeeeeeeedddcbbbbbbbbccccbbbbbbbbbbccdddeeeffghjlnoqstuvvvysrpmkigffeeeeeeeeghiijkmpsuwyzyxvsqomkjihgfffeeeeedddddedddccccccccdddddddddde
(PID.TID 0000.0001)      1 eeeeddeeddcccddddcdddddddddeeeeddddddddedddddcccccccccdddeeeeeeddddcbbbbbbbbccdcbbbbbbbbbbbdddeeeeefghikmoqstuvvvvtrpnjihgfeeeeeeeffghijkloruwyyywuspnmljihgfffeeeeeeddeeeeddccccccdddeeeeeeeeed
(PID.TID 0000.0001) // =======================================================
(PID.TID 0000.0001) // END OF FIELD                                          =
(PID.TID 0000.0001) // =======================================================
(PID.TID 0000.0001) 
(PID.TID 0000.0001) Start initial hydrostatic pressure computation
(PID.TID 0000.0001) Pressure is predetermined for buoyancyRelation ATMOSPHERIC
(PID.TID 0000.0001) 
(PID.TID 0000.0001)  write diagnostics summary to file ioUnit:      6
Iter.Nb:         0 ; Time(s):  0.0000000000000E+00
------------------------------------------------------------------------
2D/3D diagnostics: Number of lists:     3
------------------------------------------------------------------------
listId=   1 ; file name: SHfields
 nFlds, nActive,       freq     &   phase        , nLev                 
  27  |  27  |         0.060000         0.000000 |   1
 levels:   1
 diag#| name   | ipt  | iMate| kLev| count | mate.C|                    
  209 |RADSWT  |    1 |    0 |   1 |     0 |
  232 |OSR     |    2 |    0 |   1 |     0 |
  198 |OLR     |    3 |    0 |   1 |     0 |
  371 |PLALBEDO|    4 |    0 |   1 |     0 |
  262 |CLDFRC  |    5 |    0 |   1 |     0 |
  182 |PREACC  |    6 |    0 |   1 |     0 |
  183 |PRECON  |    7 |    0 |   1 |     0 |
  213 |EVAP    |    8 |    0 |   1 |     0 |
  166 |RADSWG  |    9 |    0 |   1 |     0 |
  342 |ALBNIRDF|   10 |    0 |   1 |     0 |
  340 |ALBVISDF|   11 |    0 |   1 |     0 |
  207 |LWGDOWN |   12 |    0 |   1 |     0 |
  197 |LWGUP   |   13 |    0 |   1 |     0 |
  161 |EFLUX   |   14 |    0 |   1 |     0 |
  160 |HFLUX   |   15 |    0 |   1 |     0 |
  266 |T2M     |   16 |    0 |   1 |     0 |
  267 |Q2M     |   17 |    0 |   1 |     0 |
  162 |UFLUX   |   18 |   19 |   1 |     0 |     0 |
  163 |VFLUX   |   19 |   18 |   1 |     0 |     0 |
  268 |U10M    |   20 |   21 |   1 |     0 |     0 |
  269 |V10M    |   21 |   20 |   1 |     0 |     0 |
  240 |PS      |   22 |    0 |   1 |     0 |
  233 |OSRCLR  |   23 |    0 |   1 |     0 |
  199 |OLRCLR  |   24 |    0 |   1 |     0 |
  243 |SWGCLR  |   25 |    0 |   1 |     0 |
  200 |LWGCLR  |   26 |    0 |   1 |     0 |
   85 |RSURF   |   27 |    0 |   1 |     0 |
------------------------------------------------------------------------
listId=   2 ; file name: MLfields
 nFlds, nActive,       freq     &   phase        , nLev                 
   8  |   8  |        -0.060000         0.030000 |  20
 levels:   1   2   3   4   5   6   7   8   9  10  11  12  13  14  15  16  17  18  19  20
 diag#| name   | ipt  | iMate| kLev| count | mate.C|                    
   29 |UVEL    |   28 |   48 |  20 |     0 |     0 |
   30 |VVEL    |   48 |   28 |  20 |     0 |     0 |
   63 |PHIHYD  |   68 |    0 |  20 |     0 |
   31 |WVEL    |   88 |    0 |  20 |     0 |
   27 |SALT    |  108 |    0 |  20 |     0 |
   28 |RELHUM  |  128 |    0 |  20 |     0 |
   84 |RCENTER |  148 |    0 |  20 |     0 |
   26 |THETA   |  168 |    0 |  20 |     0 |
------------------------------------------------------------------------
listId=   3 ; file name: MFfields
 nFlds, nActive,       freq     &   phase        , nLev                 
  17  |  17  |        -0.060000         0.030000 |  20
 levels:   1   2   3   4   5   6   7   8   9  10  11  12  13  14  15  16  17  18  19  20
 diag#| name   | ipt  | iMate| kLev| count | mate.C|                    
   34 |UVELSQ  |  188 |  208 |  20 |     0 |     0 |
   35 |VVELSQ  |  208 |  188 |  20 |     0 |     0 |
   32 |THETASQ |  228 |    0 |  20 |     0 |
   36 |WVELSQ  |  248 |    0 |  20 |     0 |
   64 |PHIHYDSQ|  268 |    0 |  20 |     0 |
   33 |SALTSQ  |  288 |    0 |  20 |     0 |
   37 |UV_VEL_C|  308 |  308 |  20 |     0 |     0 |
   39 |WU_VEL  |  328 |    0 |  20 |     0 |
   40 |WV_VEL  |  348 |    0 |  20 |     0 |
   51 |VVELTH  |  368 |  468 |  20 |     0 |     0 |
   52 |WVELTH  |  388 |    0 |  20 |     0 |
   54 |VVELSLT |  408 |  448 |  20 |     0 |     0 |
   55 |WVELSLT |  428 |    0 |  20 |     0 |
   53 |UVELSLT |  448 |  408 |  20 |     0 |     0 |
   50 |UVELTH  |  468 |  368 |  20 |     0 |     0 |
   56 |UVELPHI |  488 |  508 |  20 |     0 |     0 |
   57 |VVELPHI |  508 |  488 |  20 |     0 |     0 |
------------------------------------------------------------------------
Global & Regional Statistics diagnostics: Number of lists:     1
------------------------------------------------------------------------
listId=   1 ; file name: GTfields
 nFlds, nActive,       freq     &   phase        |                      
  26  |  26  |         1.000000         0.000000 |
 Regions:   0
 diag#| name   | ipt  | iMate|    Volume   |   mate-Vol. |              
  209 |RADSWT  |    1 |    0 | 0.00000E+00 |
  232 |OSR     |    2 |    0 | 0.00000E+00 |
  198 |OLR     |    3 |    0 | 0.00000E+00 |
  371 |PLALBEDO|    4 |    0 | 0.00000E+00 |
  262 |CLDFRC  |    5 |    0 | 0.00000E+00 |
  182 |PREACC  |    6 |    0 | 0.00000E+00 |
  183 |PRECON  |    7 |    0 | 0.00000E+00 |
  213 |EVAP    |    8 |    0 | 0.00000E+00 |
  166 |RADSWG  |    9 |    0 | 0.00000E+00 |
  342 |ALBNIRDF|   10 |    0 | 0.00000E+00 |
  340 |ALBVISDF|   11 |    0 | 0.00000E+00 |
  207 |LWGDOWN |   12 |    0 | 0.00000E+00 |
  197 |LWGUP   |   13 |    0 | 0.00000E+00 |
  161 |EFLUX   |   14 |    0 | 0.00000E+00 |
  160 |HFLUX   |   15 |    0 | 0.00000E+00 |
  266 |T2M     |   16 |    0 | 0.00000E+00 |
  267 |Q2M     |   17 |    0 | 0.00000E+00 |
  162 |UFLUX   |   18 |    0 | 0.00000E+00 |
  163 |VFLUX   |   19 |    0 | 0.00000E+00 |
  268 |U10M    |   20 |    0 | 0.00000E+00 |
  269 |V10M    |   21 |    0 | 0.00000E+00 |
  240 |PS      |   22 |    0 | 0.00000E+00 |
  233 |OSRCLR  |   23 |    0 | 0.00000E+00 |
  199 |OLRCLR  |   24 |    0 | 0.00000E+00 |
  243 |SWGCLR  |   25 |    0 | 0.00000E+00 |
  200 |LWGCLR  |   26 |    0 | 0.00000E+00 |
------------------------------------------------------------------------
  In fizhi_init_vars: Beginning of New Experiment 
  Cold Start: Zero out Turb second moments 
  Initialize fizhi arrays that will be on pickup 
  Cold Start: Zero out Turb second moments 
  Initialize fizhi arrays that will be on pickup 
  Cold Start: Zero out Turb second moments 
  Initialize fizhi arrays that will be on pickup 
  Cold Start: Zero out Turb second moments 
  Initialize fizhi arrays that will be on pickup 
  Cold Start: Zero out Turb second moments 
  Initialize fizhi arrays that will be on pickup 
  Cold Start: Zero out Turb second moments 
  Initialize fizhi arrays that will be on pickup 
(PID.TID 0000.0001) // =======================================================
(PID.TID 0000.0001) // Model current state
(PID.TID 0000.0001) // =======================================================
(PID.TID 0000.0001) 
(PID.TID 0000.0001) // =======================================================
(PID.TID 0000.0001) // Begin MONITOR dynamic field statistics
(PID.TID 0000.0001) // =======================================================
(PID.TID 0000.0001) %MON time_tsnumber                =                     0
(PID.TID 0000.0001) %MON time_secondsf                =   0.0000000000000E+00
(PID.TID 0000.0001) %MON dynstat_eta_max              =   0.0000000000000E+00
(PID.TID 0000.0001) %MON dynstat_eta_min              =   0.0000000000000E+00
(PID.TID 0000.0001) %MON dynstat_eta_mean             =   0.0000000000000E+00
(PID.TID 0000.0001) %MON dynstat_eta_sd               =   0.0000000000000E+00
(PID.TID 0000.0001) %MON dynstat_eta_del2             =   0.0000000000000E+00
(PID.TID 0000.0001) %MON dynstat_uvel_max             =   4.1689124714060E+01
(PID.TID 0000.0001) %MON dynstat_uvel_min             =  -3.6855012364959E+01
(PID.TID 0000.0001) %MON dynstat_uvel_mean            =   1.7037315637278E+00
(PID.TID 0000.0001) %MON dynstat_uvel_sd              =   7.8762494662000E+00
(PID.TID 0000.0001) %MON dynstat_uvel_del2            =   3.1526598440943E-01
(PID.TID 0000.0001) %MON dynstat_vvel_max             =   3.8279724931338E+01
(PID.TID 0000.0001) %MON dynstat_vvel_min             =  -3.3449826571863E+01
(PID.TID 0000.0001) %MON dynstat_vvel_mean            =   1.6728858593484E+00
(PID.TID 0000.0001) %MON dynstat_vvel_sd              =   7.8521609366093E+00
(PID.TID 0000.0001) %MON dynstat_vvel_del2            =   3.1834566062266E-01
(PID.TID 0000.0001) %MON dynstat_wvel_max             =   2.0651102168184E-01
(PID.TID 0000.0001) %MON dynstat_wvel_min             =  -1.4850774831547E-01
(PID.TID 0000.0001) %MON dynstat_wvel_mean            =   1.5920826516130E-18
(PID.TID 0000.0001) %MON dynstat_wvel_sd              =   2.6334297146946E-02
(PID.TID 0000.0001) %MON dynstat_wvel_del2            =   6.9006579166993E-03
(PID.TID 0000.0001) %MON dynstat_theta_max            =   4.8585539276299E+02
(PID.TID 0000.0001) %MON dynstat_theta_min            =   2.6911078580507E+02
(PID.TID 0000.0001) %MON dynstat_theta_mean           =   3.2503096578545E+02
(PID.TID 0000.0001) %MON dynstat_theta_sd             =   4.7714841923137E+01
(PID.TID 0000.0001) %MON dynstat_theta_del2           =   9.9343548146078E-02
(PID.TID 0000.0001) %MON dynstat_salt_max             =   3.0096328605299E-02
(PID.TID 0000.0001) %MON dynstat_salt_min             =   0.0000000000000E+00
(PID.TID 0000.0001) %MON dynstat_salt_mean            =   2.6642499910156E-03
(PID.TID 0000.0001) %MON dynstat_salt_sd              =   4.4400329333276E-03
(PID.TID 0000.0001) %MON dynstat_salt_del2            =   3.6805312667659E-05
(PID.TID 0000.0001) %MON advcfl_uvel_max              =   3.1499896007934E-02
(PID.TID 0000.0001) %MON advcfl_vvel_max              =   3.5319712134133E-02
(PID.TID 0000.0001) %MON advcfl_wvel_max              =   4.9033087854809E-03
(PID.TID 0000.0001) %MON advcfl_W_hf_max              =   4.9033087854809E-03
(PID.TID 0000.0001) %MON pe_b_mean                    =   0.0000000000000E+00
(PID.TID 0000.0001) %MON ke_max                       =   8.6575910092947E+02
(PID.TID 0000.0001) %MON ke_mean                      =   6.4696492683937E+01
(PID.TID 0000.0001) %MON ke_vol                       =   5.1537074390047E+19
(PID.TID 0000.0001) %MON vort_r_min                   =  -4.8334073392882E-05
(PID.TID 0000.0001) %MON vort_r_max                   =   5.4390382265555E-05
(PID.TID 0000.0001) %MON vort_a_mean                  =   1.3580915090222E-19
(PID.TID 0000.0001) %MON vort_a_sd                    =   8.5822836919601E-05
(PID.TID 0000.0001) %MON vort_p_mean                  =   1.3580915090222E-19
(PID.TID 0000.0001) %MON vort_p_sd                    =   8.5822836919601E-05
(PID.TID 0000.0001) %MON surfExpan_theta_mean         =   3.8975999242293E-17
(PID.TID 0000.0001) %MON surfExpan_salt_mean          =   1.5437467709100E-21
(PID.TID 0000.0001) %MON surfExpan_Heat_mean          =   3.9724034373426E-15
(PID.TID 0000.0001) %MON En_Budget_T2PE_mean          =  -2.2904633417964E-01
(PID.TID 0000.0001) // =======================================================
(PID.TID 0000.0001) // End MONITOR dynamic field statistics
(PID.TID 0000.0001) // =======================================================

 Low-Level Clouds are Grouped between levels:           30 and           18
 Mid-Level Clouds are Grouped between levels:           17 and           12


 Warning!
 Turbulent Kinetic Energy has not been initialized.
 Cold-Start will use Level 2.0 Turbulence.


 Top Level Allowed for Convection :            4
           Highest Sub-Cloud Level:           22
           Lowest  Sub-Cloud Level:           26
     Total Number of Random Clouds:           13

 Creating Rand Numb Array in RNDCLOUD, iseed=           0
 IRAS:            1  IRAS0:            0 indx:            0
 Current Date     20040321 Current Time          200
 cg2d: Sum(rhs),rhsMax =   1.63709046319127E-11  3.41494610617228E+02
(PID.TID 0000.0001)                    cg2d_init_res =    4.81516248542290E+03
(PID.TID 0000.0001)                       cg2d_iters =     6
(PID.TID 0000.0001)                         cg2d_res =    9.50688763487931E-11
(PID.TID 0000.0001) // =======================================================
(PID.TID 0000.0001) // Begin MONITOR dynamic field statistics
(PID.TID 0000.0001) // =======================================================
(PID.TID 0000.0001) %MON time_tsnumber                =                     1
(PID.TID 0000.0001) %MON time_secondsf                =   1.2000000000000E+02
(PID.TID 0000.0001) %MON dynstat_eta_max              =   1.1335694243200E+01
(PID.TID 0000.0001) %MON dynstat_eta_min              =  -6.8881281664859E+00
(PID.TID 0000.0001) %MON dynstat_eta_mean             =  -1.2418244682581E-17
(PID.TID 0000.0001) %MON dynstat_eta_sd               =   1.0803202511142E+00
(PID.TID 0000.0001) %MON dynstat_eta_del2             =   3.1363632492624E-01
(PID.TID 0000.0001) %MON dynstat_uvel_max             =   4.1671168667721E+01
(PID.TID 0000.0001) %MON dynstat_uvel_min             =  -3.6890544564903E+01
(PID.TID 0000.0001) %MON dynstat_uvel_mean            =   1.7031695895167E+00
(PID.TID 0000.0001) %MON dynstat_uvel_sd              =   7.8744786045324E+00
(PID.TID 0000.0001) %MON dynstat_uvel_del2            =   3.1488381896553E-01
(PID.TID 0000.0001) %MON dynstat_vvel_max             =   3.8266982510448E+01
(PID.TID 0000.0001) %MON dynstat_vvel_min             =  -3.3384654650142E+01
(PID.TID 0000.0001) %MON dynstat_vvel_mean            =   1.6734022725030E+00
(PID.TID 0000.0001) %MON dynstat_vvel_sd              =   7.8532797687096E+00
(PID.TID 0000.0001) %MON dynstat_vvel_del2            =   3.1812171302101E-01
(PID.TID 0000.0001) %MON dynstat_wvel_max             =   2.0525897446055E-01
(PID.TID 0000.0001) %MON dynstat_wvel_min             =  -1.6045751110391E-01
(PID.TID 0000.0001) %MON dynstat_wvel_mean            =  -2.7861446403228E-18
(PID.TID 0000.0001) %MON dynstat_wvel_sd              =   2.6352799610831E-02
(PID.TID 0000.0001) %MON dynstat_wvel_del2            =   6.8483560782593E-03
(PID.TID 0000.0001) %MON dynstat_theta_max            =   4.8595513778702E+02
(PID.TID 0000.0001) %MON dynstat_theta_min            =   2.6911257170683E+02
(PID.TID 0000.0001) %MON dynstat_theta_mean           =   3.2504139614834E+02
(PID.TID 0000.0001) %MON dynstat_theta_sd             =   4.7752044329955E+01
(PID.TID 0000.0001) %MON dynstat_theta_del2           =   9.9406994679073E-02
(PID.TID 0000.0001) %MON dynstat_salt_max             =   2.9557606786642E-02
(PID.TID 0000.0001) %MON dynstat_salt_min             =  -1.1341244001787E-10
(PID.TID 0000.0001) %MON dynstat_salt_mean            =   2.6643102836824E-03
(PID.TID 0000.0001) %MON dynstat_salt_sd              =   4.4270063324274E-03
(PID.TID 0000.0001) %MON dynstat_salt_del2            =   3.8284205779927E-05
(PID.TID 0000.0001) %MON advcfl_uvel_max              =   3.1565067054170E-02
(PID.TID 0000.0001) %MON advcfl_vvel_max              =   3.5318811881498E-02
(PID.TID 0000.0001) %MON advcfl_wvel_max              =   4.8735807153276E-03
(PID.TID 0000.0001) %MON advcfl_W_hf_max              =   4.8735807153276E-03
(PID.TID 0000.0001) %MON pe_b_mean                    =   4.7001227217849E-06
(PID.TID 0000.0001) %MON ke_max                       =   8.6477641190713E+02
(PID.TID 0000.0001) %MON ke_mean                      =   6.4691239117565E+01
(PID.TID 0000.0001) %MON ke_vol                       =   5.1537074390047E+19
(PID.TID 0000.0001) %MON vort_r_min                   =  -4.8331686059243E-05
(PID.TID 0000.0001) %MON vort_r_max                   =   5.4416633322161E-05
(PID.TID 0000.0001) %MON vort_a_mean                  =   2.4979183112373E-19
(PID.TID 0000.0001) %MON vort_a_sd                    =   8.5822701426630E-05
(PID.TID 0000.0001) %MON vort_p_mean                  =   2.4979183112373E-19
(PID.TID 0000.0001) %MON vort_p_sd                    =   8.5822701426630E-05
(PID.TID 0000.0001) %MON surfExpan_theta_mean         =  -1.5115868579430E-03
(PID.TID 0000.0001) %MON surfExpan_salt_mean          =  -1.3487043947973E-06
(PID.TID 0000.0001) %MON surfExpan_Heat_mean          =  -9.5979557538033E-02
(PID.TID 0000.0001) %MON En_Budget_T2PE_mean          =  -2.0955316766749E-01
(PID.TID 0000.0001) // =======================================================
(PID.TID 0000.0001) // End MONITOR dynamic field statistics
(PID.TID 0000.0001) // =======================================================
 Current Date     20040321 Current Time          400
 cg2d: Sum(rhs),rhsMax =  -8.00355337560177E-11  1.00664132618685E+03
(PID.TID 0000.0001)                    cg2d_init_res =    9.48025378718171E+03
(PID.TID 0000.0001)                       cg2d_iters =     6
(PID.TID 0000.0001)                         cg2d_res =    1.81266812617601E-10
(PID.TID 0000.0001) // =======================================================
(PID.TID 0000.0001) // Begin MONITOR dynamic field statistics
(PID.TID 0000.0001) // =======================================================
(PID.TID 0000.0001) %MON time_tsnumber                =                     2
(PID.TID 0000.0001) %MON time_secondsf                =   2.4000000000000E+02
(PID.TID 0000.0001) %MON dynstat_eta_max              =   2.9927537881338E+01
(PID.TID 0000.0001) %MON dynstat_eta_min              =  -2.0289960553638E+01
(PID.TID 0000.0001) %MON dynstat_eta_mean             =  -4.7189329793809E-16
(PID.TID 0000.0001) %MON dynstat_eta_sd               =   3.1881608985432E+00
(PID.TID 0000.0001) %MON dynstat_eta_del2             =   8.7937365468656E-01
(PID.TID 0000.0001) %MON dynstat_uvel_max             =   4.1651694936719E+01
(PID.TID 0000.0001) %MON dynstat_uvel_min             =  -3.6923976977158E+01
(PID.TID 0000.0001) %MON dynstat_uvel_mean            =   1.7026170461750E+00
(PID.TID 0000.0001) %MON dynstat_uvel_sd              =   7.8725461810625E+00
(PID.TID 0000.0001) %MON dynstat_uvel_del2            =   3.1463288528888E-01
(PID.TID 0000.0001) %MON dynstat_vvel_max             =   3.8252464727005E+01
(PID.TID 0000.0001) %MON dynstat_vvel_min             =  -3.3316415910597E+01
(PID.TID 0000.0001) %MON dynstat_vvel_mean            =   1.6739288881142E+00
(PID.TID 0000.0001) %MON dynstat_vvel_sd              =   7.8541693432849E+00
(PID.TID 0000.0001) %MON dynstat_vvel_del2            =   3.1801737601414E-01
(PID.TID 0000.0001) %MON dynstat_wvel_max             =   2.0394114240779E-01
(PID.TID 0000.0001) %MON dynstat_wvel_min             =  -1.7238691891104E-01
(PID.TID 0000.0001) %MON dynstat_wvel_mean            =   7.9604132580650E-19
(PID.TID 0000.0001) %MON dynstat_wvel_sd              =   2.6378142606641E-02
(PID.TID 0000.0001) %MON dynstat_wvel_del2            =   6.8213259633847E-03
(PID.TID 0000.0001) %MON dynstat_theta_max            =   4.8605453830316E+02
(PID.TID 0000.0001) %MON dynstat_theta_min            =   2.6911436188662E+02
(PID.TID 0000.0001) %MON dynstat_theta_mean           =   3.2505181987302E+02
(PID.TID 0000.0001) %MON dynstat_theta_sd             =   4.7789308795357E+01
(PID.TID 0000.0001) %MON dynstat_theta_del2           =   9.9564416407375E-02
(PID.TID 0000.0001) %MON dynstat_salt_max             =   2.9371440617266E-02
(PID.TID 0000.0001) %MON dynstat_salt_min             =  -3.8671906486413E-10
(PID.TID 0000.0001) %MON dynstat_salt_mean            =   2.6643716655174E-03
(PID.TID 0000.0001) %MON dynstat_salt_sd              =   4.4155532456755E-03
(PID.TID 0000.0001) %MON dynstat_salt_del2            =   4.1648172648328E-05
(PID.TID 0000.0001) %MON advcfl_uvel_max              =   3.1611110616490E-02
(PID.TID 0000.0001) %MON advcfl_vvel_max              =   3.5314169403274E-02
(PID.TID 0000.0001) %MON advcfl_wvel_max              =   4.8422906784595E-03
(PID.TID 0000.0001) %MON advcfl_W_hf_max              =   4.8422739787211E-03
(PID.TID 0000.0001) %MON pe_b_mean                    =   4.0934041477640E-05
(PID.TID 0000.0001) %MON ke_max                       =   8.6375268492097E+02
(PID.TID 0000.0001) %MON ke_mean                      =   6.4682951087991E+01
(PID.TID 0000.0001) %MON ke_vol                       =   5.1537074390046E+19
(PID.TID 0000.0001) %MON vort_r_min                   =  -4.8326840378426E-05
(PID.TID 0000.0001) %MON vort_r_max                   =   5.4441797744127E-05
(PID.TID 0000.0001) %MON vort_a_mean                  =   9.2156209540793E-20
(PID.TID 0000.0001) %MON vort_a_sd                    =   8.5822491588484E-05
(PID.TID 0000.0001) %MON vort_p_mean                  =   9.2156209126926E-20
(PID.TID 0000.0001) %MON vort_p_sd                    =   8.5822534505088E-05
(PID.TID 0000.0001) %MON surfExpan_theta_mean         =   4.3244755886207E-04
(PID.TID 0000.0001) %MON surfExpan_salt_mean          =  -2.7650342580717E-06
(PID.TID 0000.0001) %MON surfExpan_Heat_mean          =   1.5394514383843E-01
(PID.TID 0000.0001) %MON En_Budget_T2PE_mean          =  -1.9030083701856E-01
(PID.TID 0000.0001) // =======================================================
(PID.TID 0000.0001) // End MONITOR dynamic field statistics
(PID.TID 0000.0001) // =======================================================
 Current Date     20040321 Current Time          600
 cg2d: Sum(rhs),rhsMax =   7.27595761418343E-11  1.97853779414888E+03
(PID.TID 0000.0001)                    cg2d_init_res =    1.41157795596186E+04
(PID.TID 0000.0001)                       cg2d_iters =     6
(PID.TID 0000.0001)                         cg2d_res =    2.63187843659024E-10
(PID.TID 0000.0001) // =======================================================
(PID.TID 0000.0001) // Begin MONITOR dynamic field statistics
(PID.TID 0000.0001) // =======================================================
(PID.TID 0000.0001) %MON time_tsnumber                =                     3
(PID.TID 0000.0001) %MON time_secondsf                =   3.6000000000000E+02
(PID.TID 0000.0001) %MON dynstat_eta_max              =   5.0335577114054E+01
(PID.TID 0000.0001) %MON dynstat_eta_min              =  -3.9870423808911E+01
(PID.TID 0000.0001) %MON dynstat_eta_mean             =   6.9542170222456E-16
(PID.TID 0000.0001) %MON dynstat_eta_sd               =   6.3300195272903E+00
(PID.TID 0000.0001) %MON dynstat_eta_del2             =   1.6589896291987E+00
(PID.TID 0000.0001) %MON dynstat_uvel_max             =   4.1632029375648E+01
(PID.TID 0000.0001) %MON dynstat_uvel_min             =  -3.6956133282514E+01
(PID.TID 0000.0001) %MON dynstat_uvel_mean            =   1.7020797364440E+00
(PID.TID 0000.0001) %MON dynstat_uvel_sd              =   7.8705860799638E+00
(PID.TID 0000.0001) %MON dynstat_uvel_del2            =   3.1432946121020E-01
(PID.TID 0000.0001) %MON dynstat_vvel_max             =   3.8236951472732E+01
(PID.TID 0000.0001) %MON dynstat_vvel_min             =  -3.3246796871979E+01
(PID.TID 0000.0001) %MON dynstat_vvel_mean            =   1.6744701615029E+00
(PID.TID 0000.0001) %MON dynstat_vvel_sd              =   7.8549586971832E+00
(PID.TID 0000.0001) %MON dynstat_vvel_del2            =   3.1786223750286E-01
(PID.TID 0000.0001) %MON dynstat_wvel_max             =   2.0255232336952E-01
(PID.TID 0000.0001) %MON dynstat_wvel_min             =  -1.8471538139407E-01
(PID.TID 0000.0001) %MON dynstat_wvel_mean            =   1.4328743864517E-18
(PID.TID 0000.0001) %MON dynstat_wvel_sd              =   2.6404678887625E-02
(PID.TID 0000.0001) %MON dynstat_wvel_del2            =   6.8068905275176E-03
(PID.TID 0000.0001) %MON dynstat_theta_max            =   4.8615368762542E+02
(PID.TID 0000.0001) %MON dynstat_theta_min            =   2.6911608656689E+02
(PID.TID 0000.0001) %MON dynstat_theta_mean           =   3.2506223776091E+02
(PID.TID 0000.0001) %MON dynstat_theta_sd             =   4.7826600672809E+01
(PID.TID 0000.0001) %MON dynstat_theta_del2           =   9.9530008466653E-02
(PID.TID 0000.0001) %MON dynstat_salt_max             =   2.9229591844655E-02
(PID.TID 0000.0001) %MON dynstat_salt_min             =  -7.2680113617166E-10
(PID.TID 0000.0001) %MON dynstat_salt_mean            =   2.6644324393041E-03
(PID.TID 0000.0001) %MON dynstat_salt_sd              =   4.4052914102615E-03
(PID.TID 0000.0001) %MON dynstat_salt_del2            =   4.2702563211358E-05
(PID.TID 0000.0001) %MON advcfl_uvel_max              =   3.1638008887312E-02
(PID.TID 0000.0001) %MON advcfl_vvel_max              =   3.5304813883795E-02
(PID.TID 0000.0001) %MON advcfl_wvel_max              =   4.8093151571711E-03
(PID.TID 0000.0001) %MON advcfl_W_hf_max              =   4.8092574584783E-03
(PID.TID 0000.0001) %MON pe_b_mean                    =   1.6136682822689E-04
(PID.TID 0000.0001) %MON ke_max                       =   8.6273231649999E+02
(PID.TID 0000.0001) %MON ke_mean                      =   6.4673713567382E+01
(PID.TID 0000.0001) %MON ke_vol                       =   5.1537074390047E+19
(PID.TID 0000.0001) %MON vort_r_min                   =  -4.8320607094414E-05
(PID.TID 0000.0001) %MON vort_r_max                   =   5.4466470740101E-05
(PID.TID 0000.0001) %MON vort_a_mean                  =   1.1640784363048E-19
(PID.TID 0000.0001) %MON vort_a_sd                    =   8.5822201407459E-05
(PID.TID 0000.0001) %MON vort_p_mean                  =   1.1640784195995E-19
(PID.TID 0000.0001) %MON vort_p_sd                    =   8.5822360200550E-05
(PID.TID 0000.0001) %MON surfExpan_theta_mean         =   2.4344710332476E-03
(PID.TID 0000.0001) %MON surfExpan_salt_mean          =  -4.1585772682281E-06
(PID.TID 0000.0001) %MON surfExpan_Heat_mean          =   4.0790205672436E-01
(PID.TID 0000.0001) %MON En_Budget_T2PE_mean          =  -1.7146197269160E-01
(PID.TID 0000.0001) // =======================================================
(PID.TID 0000.0001) // End MONITOR dynamic field statistics
(PID.TID 0000.0001) // =======================================================
 Current Date     20040321 Current Time          800
 cg2d: Sum(rhs),rhsMax =   2.91038304567337E-11  3.23558965958673E+03
(PID.TID 0000.0001)                    cg2d_init_res =    1.85717586125027E+04
(PID.TID 0000.0001)                       cg2d_iters =     6
(PID.TID 0000.0001)                         cg2d_res =    3.37969916263317E-10
(PID.TID 0000.0001) // =======================================================
(PID.TID 0000.0001) // Begin MONITOR dynamic field statistics
(PID.TID 0000.0001) // =======================================================
(PID.TID 0000.0001) %MON time_tsnumber                =                     4
(PID.TID 0000.0001) %MON time_secondsf                =   4.8000000000000E+02
(PID.TID 0000.0001) %MON dynstat_eta_max              =   6.8667152981399E+01
(PID.TID 0000.0001) %MON dynstat_eta_min              =  -6.5200825539571E+01
(PID.TID 0000.0001) %MON dynstat_eta_mean             =  -2.1856110641343E-15
(PID.TID 0000.0001) %MON dynstat_eta_sd               =   1.0465999151384E+01
(PID.TID 0000.0001) %MON dynstat_eta_del2             =   2.6001968906060E+00
(PID.TID 0000.0001) %MON dynstat_uvel_max             =   4.1612575270704E+01
(PID.TID 0000.0001) %MON dynstat_uvel_min             =  -3.6987039718321E+01
(PID.TID 0000.0001) %MON dynstat_uvel_mean            =   1.7015578475786E+00
(PID.TID 0000.0001) %MON dynstat_uvel_sd              =   7.8686202508285E+00
(PID.TID 0000.0001) %MON dynstat_uvel_del2            =   3.1408017184337E-01
(PID.TID 0000.0001) %MON dynstat_vvel_max             =   3.8220579642515E+01
(PID.TID 0000.0001) %MON dynstat_vvel_min             =  -3.3176070486867E+01
(PID.TID 0000.0001) %MON dynstat_vvel_mean            =   1.6750245288394E+00
(PID.TID 0000.0001) %MON dynstat_vvel_sd              =   7.8556785153865E+00
(PID.TID 0000.0001) %MON dynstat_vvel_del2            =   3.1774910619189E-01
(PID.TID 0000.0001) %MON dynstat_wvel_max             =   2.0108867359702E-01
(PID.TID 0000.0001) %MON dynstat_wvel_min             =  -1.9763490561003E-01
(PID.TID 0000.0001) %MON dynstat_wvel_mean            =   1.9104991819356E-18
(PID.TID 0000.0001) %MON dynstat_wvel_sd              =   2.6437017401697E-02
(PID.TID 0000.0001) %MON dynstat_wvel_del2            =   6.8104941341061E-03
(PID.TID 0000.0001) %MON dynstat_theta_max            =   4.8625258865013E+02
(PID.TID 0000.0001) %MON dynstat_theta_min            =   2.6911778502636E+02
(PID.TID 0000.0001) %MON dynstat_theta_mean           =   3.2507265422183E+02
(PID.TID 0000.0001) %MON dynstat_theta_sd             =   4.7863941334710E+01
(PID.TID 0000.0001) %MON dynstat_theta_del2           =   9.9558387036196E-02
(PID.TID 0000.0001) %MON dynstat_salt_max             =   2.9088266060717E-02
(PID.TID 0000.0001) %MON dynstat_salt_min             =  -1.1122799788507E-09
(PID.TID 0000.0001) %MON dynstat_salt_mean            =   2.6644931593716E-03
(PID.TID 0000.0001) %MON dynstat_salt_sd              =   4.3955409030740E-03
(PID.TID 0000.0001) %MON dynstat_salt_del2            =   4.4268191806086E-05
(PID.TID 0000.0001) %MON advcfl_uvel_max              =   3.1649787117853E-02
(PID.TID 0000.0001) %MON advcfl_vvel_max              =   3.5290963393368E-02
(PID.TID 0000.0001) %MON advcfl_wvel_max              =   4.7745628871472E-03
(PID.TID 0000.0001) %MON advcfl_W_hf_max              =   4.7744365138721E-03
(PID.TID 0000.0001) %MON pe_b_mean                    =   4.4112894330118E-04
(PID.TID 0000.0001) %MON ke_max                       =   8.6172984035168E+02
(PID.TID 0000.0001) %MON ke_mean                      =   6.4663937942342E+01
(PID.TID 0000.0001) %MON ke_vol                       =   5.1537074390047E+19
(PID.TID 0000.0001) %MON vort_r_min                   =  -4.8313026224589E-05
(PID.TID 0000.0001) %MON vort_r_max                   =   5.4490657345572E-05
(PID.TID 0000.0001) %MON vort_a_mean                  =   2.4251634089682E-20
(PID.TID 0000.0001) %MON vort_a_sd                    =   8.5821860273151E-05
(PID.TID 0000.0001) %MON vort_p_mean                  =   2.4251633382181E-20
(PID.TID 0000.0001) %MON vort_p_sd                    =   8.5822207077687E-05
(PID.TID 0000.0001) %MON surfExpan_theta_mean         =   4.5047227299123E-03
(PID.TID 0000.0001) %MON surfExpan_salt_mean          =  -5.5235838046162E-06
(PID.TID 0000.0001) %MON surfExpan_Heat_mean          =   6.6674185830474E-01
(PID.TID 0000.0001) %MON En_Budget_T2PE_mean          =  -1.5294062260611E-01
(PID.TID 0000.0001) // =======================================================
(PID.TID 0000.0001) // End MONITOR dynamic field statistics
(PID.TID 0000.0001) // =======================================================
 Current Date     20040321 Current Time         1000
 cg2d: Sum(rhs),rhsMax =  -1.16415321826935E-10  4.75224821500674E+03
(PID.TID 0000.0001)                    cg2d_init_res =    2.28038667223801E+04
(PID.TID 0000.0001)                       cg2d_iters =     6
(PID.TID 0000.0001)                         cg2d_res =    4.05647987641344E-10
(PID.TID 0000.0001) // =======================================================
(PID.TID 0000.0001) // Begin MONITOR dynamic field statistics
(PID.TID 0000.0001) // =======================================================
(PID.TID 0000.0001) %MON time_tsnumber                =                     5
(PID.TID 0000.0001) %MON time_secondsf                =   6.0000000000000E+02
(PID.TID 0000.0001) %MON dynstat_eta_max              =   8.3052797247839E+01
(PID.TID 0000.0001) %MON dynstat_eta_min              =  -9.5773855549191E+01
(PID.TID 0000.0001) %MON dynstat_eta_mean             =   9.9345957460651E-17
(PID.TID 0000.0001) %MON dynstat_eta_sd               =   1.5545895353508E+01
(PID.TID 0000.0001) %MON dynstat_eta_del2             =   3.6519887093420E+00
(PID.TID 0000.0001) %MON dynstat_uvel_max             =   4.1593693769649E+01
(PID.TID 0000.0001) %MON dynstat_uvel_min             =  -3.7016702744627E+01
(PID.TID 0000.0001) %MON dynstat_uvel_mean            =   1.7010513754192E+00
(PID.TID 0000.0001) %MON dynstat_uvel_sd              =   7.8666688055700E+00
(PID.TID 0000.0001) %MON dynstat_uvel_del2            =   3.1387109224807E-01
(PID.TID 0000.0001) %MON dynstat_vvel_max             =   3.8203500005621E+01
(PID.TID 0000.0001) %MON dynstat_vvel_min             =  -3.3104515200243E+01
(PID.TID 0000.0001) %MON dynstat_vvel_mean            =   1.6755892456076E+00
(PID.TID 0000.0001) %MON dynstat_vvel_sd              =   7.8563523372522E+00
(PID.TID 0000.0001) %MON dynstat_vvel_del2            =   3.1763980113896E-01
(PID.TID 0000.0001) %MON dynstat_wvel_max             =   2.0141919995580E-01
(PID.TID 0000.0001) %MON dynstat_wvel_min             =  -2.1125006097006E-01
(PID.TID 0000.0001) %MON dynstat_wvel_mean            =  -9.7117041748393E-18
(PID.TID 0000.0001) %MON dynstat_wvel_sd              =   2.6476065419212E-02
(PID.TID 0000.0001) %MON dynstat_wvel_del2            =   6.8270076020546E-03
(PID.TID 0000.0001) %MON dynstat_theta_max            =   4.8635124401885E+02
(PID.TID 0000.0001) %MON dynstat_theta_min            =   2.6911943860289E+02
(PID.TID 0000.0001) %MON dynstat_theta_mean           =   3.2508308004385E+02
(PID.TID 0000.0001) %MON dynstat_theta_sd             =   4.7901327459104E+01
(PID.TID 0000.0001) %MON dynstat_theta_del2           =   9.9531510068800E-02
(PID.TID 0000.0001) %MON dynstat_salt_max             =   2.8979630590059E-02
(PID.TID 0000.0001) %MON dynstat_salt_min             =  -1.5227645139587E-09
(PID.TID 0000.0001) %MON dynstat_salt_mean            =   2.6645515457361E-03
(PID.TID 0000.0001) %MON dynstat_salt_sd              =   4.3871470275202E-03
(PID.TID 0000.0001) %MON dynstat_salt_del2            =   4.5202683278557E-05
(PID.TID 0000.0001) %MON advcfl_uvel_max              =   3.1652243065930E-02
(PID.TID 0000.0001) %MON advcfl_vvel_max              =   3.5273608534495E-02
(PID.TID 0000.0001) %MON advcfl_wvel_max              =   5.0158304939468E-03
(PID.TID 0000.0001) %MON advcfl_W_hf_max              =   5.0168703455647E-03
(PID.TID 0000.0001) %MON pe_b_mean                    =   9.7327516825422E-04
(PID.TID 0000.0001) %MON ke_max                       =   8.6075806489721E+02
(PID.TID 0000.0001) %MON ke_mean                      =   6.4653962634262E+01
(PID.TID 0000.0001) %MON ke_vol                       =   5.1537074390047E+19
(PID.TID 0000.0001) %MON vort_r_min                   =  -4.8304147629665E-05
(PID.TID 0000.0001) %MON vort_r_max                   =   5.4514365045865E-05
(PID.TID 0000.0001) %MON vort_a_mean                  =  -1.6976143862778E-19
(PID.TID 0000.0001) %MON vort_a_sd                    =   8.5821464097826E-05
(PID.TID 0000.0001) %MON vort_p_mean                  =  -1.6976143039246E-19
(PID.TID 0000.0001) %MON vort_p_sd                    =   8.5822070009079E-05
(PID.TID 0000.0001) %MON surfExpan_theta_mean         =   6.6507296211782E-03
(PID.TID 0000.0001) %MON surfExpan_salt_mean          =  -6.8554734191291E-06
(PID.TID 0000.0001) %MON surfExpan_Heat_mean          =   9.3105127565005E-01
(PID.TID 0000.0001) %MON En_Budget_T2PE_mean          =  -1.3468690622452E-01
(PID.TID 0000.0001) // =======================================================
(PID.TID 0000.0001) // End MONITOR dynamic field statistics
(PID.TID 0000.0001) // =======================================================
 Current Date     20040321 Current Time         1200
 cg2d: Sum(rhs),rhsMax =  -5.82076609134674E-11  6.50001156082701E+03
(PID.TID 0000.0001)                    cg2d_init_res =    2.67930191500245E+04
(PID.TID 0000.0001)                       cg2d_iters =     7
(PID.TID 0000.0001)                         cg2d_res =    2.83234467484162E-12
(PID.TID 0000.0001) // =======================================================
(PID.TID 0000.0001) // Begin MONITOR dynamic field statistics
(PID.TID 0000.0001) // =======================================================
(PID.TID 0000.0001) %MON time_tsnumber                =                     6
(PID.TID 0000.0001) %MON time_secondsf                =   7.2000000000000E+02
(PID.TID 0000.0001) %MON dynstat_eta_max              =   9.6323409618064E+01
(PID.TID 0000.0001) %MON dynstat_eta_min              =  -1.3102337841578E+02
(PID.TID 0000.0001) %MON dynstat_eta_mean             =  -1.9869191492130E-16
(PID.TID 0000.0001) %MON dynstat_eta_sd               =   2.1514999997009E+01
(PID.TID 0000.0001) %MON dynstat_eta_del2             =   4.7709713398221E+00
(PID.TID 0000.0001) %MON dynstat_uvel_max             =   4.1575693892391E+01
(PID.TID 0000.0001) %MON dynstat_uvel_min             =  -3.7045109759800E+01
(PID.TID 0000.0001) %MON dynstat_uvel_mean            =   1.7005619664960E+00
(PID.TID 0000.0001) %MON dynstat_uvel_sd              =   7.8646943649293E+00
(PID.TID 0000.0001) %MON dynstat_uvel_del2            =   3.1369162349051E-01
(PID.TID 0000.0001) %MON dynstat_vvel_max             =   3.8185876910004E+01
(PID.TID 0000.0001) %MON dynstat_vvel_min             =  -3.3032411566782E+01
(PID.TID 0000.0001) %MON dynstat_vvel_mean            =   1.6761648006850E+00
(PID.TID 0000.0001) %MON dynstat_vvel_sd              =   7.8569312572670E+00
(PID.TID 0000.0001) %MON dynstat_vvel_del2            =   3.1753980146877E-01
(PID.TID 0000.0001) %MON dynstat_wvel_max             =   2.0398148190904E-01
(PID.TID 0000.0001) %MON dynstat_wvel_min             =  -2.2556682849398E-01
(PID.TID 0000.0001) %MON dynstat_wvel_mean            =   1.6239243046453E-17
(PID.TID 0000.0001) %MON dynstat_wvel_sd              =   2.6520150158230E-02
(PID.TID 0000.0001) %MON dynstat_wvel_del2            =   6.8537021861947E-03
(PID.TID 0000.0001) %MON dynstat_theta_max            =   4.8644965656610E+02
(PID.TID 0000.0001) %MON dynstat_theta_min            =   2.6912109302647E+02
(PID.TID 0000.0001) %MON dynstat_theta_mean           =   3.2520826335990E+02
(PID.TID 0000.0001) %MON dynstat_theta_sd             =   4.7968891900756E+01
(PID.TID 0000.0001) %MON dynstat_theta_del2           =   1.5230017113926E-01
(PID.TID 0000.0001) %MON dynstat_salt_max             =   2.7626941018228E-02
(PID.TID 0000.0001) %MON dynstat_salt_min             =  -6.6158562307278E-04
(PID.TID 0000.0001) %MON dynstat_salt_mean            =   2.6351316928832E-03
(PID.TID 0000.0001) %MON dynstat_salt_sd              =   4.3431081634395E-03
(PID.TID 0000.0001) %MON dynstat_salt_del2            =   6.6360822907141E-05
(PID.TID 0000.0001) %MON advcfl_uvel_max              =   3.1650851476119E-02
(PID.TID 0000.0001) %MON advcfl_vvel_max              =   3.5253968229494E-02
(PID.TID 0000.0001) %MON advcfl_wvel_max              =   5.3557616579497E-03
(PID.TID 0000.0001) %MON advcfl_W_hf_max              =   5.3566407415648E-03
(PID.TID 0000.0001) %MON pe_b_mean                    =   1.8641757918237E-03
(PID.TID 0000.0001) %MON ke_max                       =   8.5982770539648E+02
(PID.TID 0000.0001) %MON ke_mean                      =   6.4643112853118E+01
(PID.TID 0000.0001) %MON ke_vol                       =   5.1537074390047E+19
(PID.TID 0000.0001) %MON vort_r_min                   =  -4.8294031690151E-05
(PID.TID 0000.0001) %MON vort_r_max                   =   5.4537602952879E-05
(PID.TID 0000.0001) %MON vort_a_mean                  =  -1.8673758249055E-19
(PID.TID 0000.0001) %MON vort_a_sd                    =   8.5821010621253E-05
(PID.TID 0000.0001) %MON vort_p_mean                  =  -1.8673756905778E-19
(PID.TID 0000.0001) %MON vort_p_sd                    =   8.5821945466600E-05
(PID.TID 0000.0001) %MON surfExpan_theta_mean         =   6.4557090625801E-03
(PID.TID 0000.0001) %MON surfExpan_salt_mean          =  -7.5279031780379E-06
(PID.TID 0000.0001) %MON surfExpan_Heat_mean          =   1.0424047072225E+00
(PID.TID 0000.0001) %MON En_Budget_T2PE_mean          =  -5.8349847393734E-02
(PID.TID 0000.0001) // =======================================================
(PID.TID 0000.0001) // End MONITOR dynamic field statistics
(PID.TID 0000.0001) // =======================================================
 Current Date     20040321 Current Time         1400
 cg2d: Sum(rhs),rhsMax =   1.16415321826935E-10  8.46130766992070E+03
(PID.TID 0000.0001)                    cg2d_init_res =    3.17329852265069E+04
(PID.TID 0000.0001)                       cg2d_iters =     7
(PID.TID 0000.0001)                         cg2d_res =    4.31567550851235E-12
(PID.TID 0000.0001) // =======================================================
(PID.TID 0000.0001) // Begin MONITOR dynamic field statistics
(PID.TID 0000.0001) // =======================================================
(PID.TID 0000.0001) %MON time_tsnumber                =                     7
(PID.TID 0000.0001) %MON time_secondsf                =   8.4000000000000E+02
(PID.TID 0000.0001) %MON dynstat_eta_max              =   1.1362360254993E+02
(PID.TID 0000.0001) %MON dynstat_eta_min              =  -1.7034168818349E+02
(PID.TID 0000.0001) %MON dynstat_eta_mean             =   5.5633736177965E-15
(PID.TID 0000.0001) %MON dynstat_eta_sd               =   2.8405624639340E+01
(PID.TID 0000.0001) %MON dynstat_eta_del2             =   6.2570171092117E+00
(PID.TID 0000.0001) %MON dynstat_uvel_max             =   4.1558830806455E+01
(PID.TID 0000.0001) %MON dynstat_uvel_min             =  -3.7072229183059E+01
(PID.TID 0000.0001) %MON dynstat_uvel_mean            =   1.7001302786955E+00
(PID.TID 0000.0001) %MON dynstat_uvel_sd              =   7.8627971517781E+00
(PID.TID 0000.0001) %MON dynstat_uvel_del2            =   3.1537564684094E-01
(PID.TID 0000.0001) %MON dynstat_vvel_max             =   3.8167879551079E+01
(PID.TID 0000.0001) %MON dynstat_vvel_min             =  -3.2960305178173E+01
(PID.TID 0000.0001) %MON dynstat_vvel_mean            =   1.6767070887301E+00
(PID.TID 0000.0001) %MON dynstat_vvel_sd              =   7.8576485291285E+00
(PID.TID 0000.0001) %MON dynstat_vvel_del2            =   3.1935183271722E-01
(PID.TID 0000.0001) %MON dynstat_wvel_max             =   2.2483388798658E-01
(PID.TID 0000.0001) %MON dynstat_wvel_min             =  -2.4046845900613E-01
(PID.TID 0000.0001) %MON dynstat_wvel_mean            =   2.2289157122582E-18
(PID.TID 0000.0001) %MON dynstat_wvel_sd              =   2.7345994041719E-02
(PID.TID 0000.0001) %MON dynstat_wvel_del2            =   8.1256987908636E-03
(PID.TID 0000.0001) %MON dynstat_theta_max            =   4.8654782231389E+02
(PID.TID 0000.0001) %MON dynstat_theta_min            =   2.6912277443016E+02
(PID.TID 0000.0001) %MON dynstat_theta_mean           =   3.2533360654971E+02
(PID.TID 0000.0001) %MON dynstat_theta_sd             =   4.8053392720212E+01
(PID.TID 0000.0001) %MON dynstat_theta_del2           =   2.0784152640627E-01
(PID.TID 0000.0001) %MON dynstat_salt_max             =   2.6556383076083E-02
(PID.TID 0000.0001) %MON dynstat_salt_min             =  -9.7762671897916E-03
(PID.TID 0000.0001) %MON dynstat_salt_mean            =   2.6057079154037E-03
(PID.TID 0000.0001) %MON dynstat_salt_sd              =   4.3464636607849E-03
(PID.TID 0000.0001) %MON dynstat_salt_del2            =   8.9508150570191E-05
(PID.TID 0000.0001) %MON advcfl_uvel_max              =   3.1649417587291E-02
(PID.TID 0000.0001) %MON advcfl_vvel_max              =   3.5233071580082E-02
(PID.TID 0000.0001) %MON advcfl_wvel_max              =   5.7095795569321E-03
(PID.TID 0000.0001) %MON advcfl_W_hf_max              =   5.7100075161037E-03
(PID.TID 0000.0001) %MON pe_b_mean                    =   3.2494723876759E-03
(PID.TID 0000.0001) %MON ke_max                       =   8.5894733248573E+02
(PID.TID 0000.0001) %MON ke_mean                      =   6.4634004558653E+01
(PID.TID 0000.0001) %MON ke_vol                       =   5.1537074390047E+19
(PID.TID 0000.0001) %MON vort_r_min                   =  -4.8282747554841E-05
(PID.TID 0000.0001) %MON vort_r_max                   =   5.4560381264789E-05
(PID.TID 0000.0001) %MON vort_a_mean                  =  -2.4251634089682E-20
(PID.TID 0000.0001) %MON vort_a_sd                    =   8.5820497051828E-05
(PID.TID 0000.0001) %MON vort_p_mean                  =  -2.4251631686908E-20
(PID.TID 0000.0001) %MON vort_p_sd                    =   8.5821829206369E-05
(PID.TID 0000.0001) %MON surfExpan_theta_mean         =   5.2652143936565E-04
(PID.TID 0000.0001) %MON surfExpan_salt_mean          =  -7.2555311106653E-06
(PID.TID 0000.0001) %MON surfExpan_Heat_mean          =   7.7029630358829E-01
(PID.TID 0000.0001) %MON En_Budget_T2PE_mean          =   3.1055725125545E-01
(PID.TID 0000.0001) // =======================================================
(PID.TID 0000.0001) // End MONITOR dynamic field statistics
(PID.TID 0000.0001) // =======================================================
 Current Date     20040321 Current Time         1600
 cg2d: Sum(rhs),rhsMax =   2.32830643653870E-10  1.06757535061993E+04
(PID.TID 0000.0001)                    cg2d_init_res =    4.12162405301104E+04
(PID.TID 0000.0001)                       cg2d_iters =     7
(PID.TID 0000.0001)                         cg2d_res =    6.34337690694697E-12
(PID.TID 0000.0001) // =======================================================
(PID.TID 0000.0001) // Begin MONITOR dynamic field statistics
(PID.TID 0000.0001) // =======================================================
(PID.TID 0000.0001) %MON time_tsnumber                =                     8
(PID.TID 0000.0001) %MON time_secondsf                =   9.6000000000000E+02
(PID.TID 0000.0001) %MON dynstat_eta_max              =   1.3120043002027E+02
(PID.TID 0000.0001) %MON dynstat_eta_min              =  -2.1310017401463E+02
(PID.TID 0000.0001) %MON dynstat_eta_mean             =   2.3843029790556E-15
(PID.TID 0000.0001) %MON dynstat_eta_sd               =   3.6551451088435E+01
(PID.TID 0000.0001) %MON dynstat_eta_del2             =   8.7503587690936E+00
(PID.TID 0000.0001) %MON dynstat_uvel_max             =   4.1543302118266E+01
(PID.TID 0000.0001) %MON dynstat_uvel_min             =  -3.7098010356695E+01
(PID.TID 0000.0001) %MON dynstat_uvel_mean            =   1.6997633402322E+00
(PID.TID 0000.0001) %MON dynstat_uvel_sd              =   7.8613778775871E+00
(PID.TID 0000.0001) %MON dynstat_uvel_del2            =   3.2135813689958E-01
(PID.TID 0000.0001) %MON dynstat_vvel_max             =   3.8149677024676E+01
(PID.TID 0000.0001) %MON dynstat_vvel_min             =  -3.2954576531410E+01
(PID.TID 0000.0001) %MON dynstat_vvel_mean            =   1.6772225137911E+00
(PID.TID 0000.0001) %MON dynstat_vvel_sd              =   7.8588486331340E+00
(PID.TID 0000.0001) %MON dynstat_vvel_del2            =   3.2501086540823E-01
(PID.TID 0000.0001) %MON dynstat_wvel_max             =   2.5411415029624E-01
(PID.TID 0000.0001) %MON dynstat_wvel_min             =  -2.6883466510995E-01
(PID.TID 0000.0001) %MON dynstat_wvel_mean            =   2.3881239774195E-18
(PID.TID 0000.0001) %MON dynstat_wvel_sd              =   3.2466082526871E-02
(PID.TID 0000.0001) %MON dynstat_wvel_del2            =   1.1536053618332E-02
(PID.TID 0000.0001) %MON dynstat_theta_max            =   4.8664573788168E+02
(PID.TID 0000.0001) %MON dynstat_theta_min            =   2.6912445658722E+02
(PID.TID 0000.0001) %MON dynstat_theta_mean           =   3.2545896495212E+02
(PID.TID 0000.0001) %MON dynstat_theta_sd             =   4.8154722219132E+01
(PID.TID 0000.0001) %MON dynstat_theta_del2           =   2.6328489675377E-01
(PID.TID 0000.0001) %MON dynstat_salt_max             =   3.4796095809095E-02
(PID.TID 0000.0001) %MON dynstat_salt_min             =  -1.8868320742266E-02
(PID.TID 0000.0001) %MON dynstat_salt_mean            =   2.5762811146495E-03
(PID.TID 0000.0001) %MON dynstat_salt_sd              =   4.3997903559212E-03
(PID.TID 0000.0001) %MON dynstat_salt_del2            =   1.1398238162581E-04
(PID.TID 0000.0001) %MON advcfl_uvel_max              =   3.1649623364907E-02
(PID.TID 0000.0001) %MON advcfl_vvel_max              =   3.5211555594580E-02
(PID.TID 0000.0001) %MON advcfl_wvel_max              =   6.3830945415895E-03
(PID.TID 0000.0001) %MON advcfl_W_hf_max              =   6.3848828125243E-03
(PID.TID 0000.0001) %MON pe_b_mean                    =   5.3803856952508E-03
(PID.TID 0000.0001) %MON ke_max                       =   8.5812320969653E+02
(PID.TID 0000.0001) %MON ke_mean                      =   6.4632517390019E+01
(PID.TID 0000.0001) %MON ke_vol                       =   5.1537074390047E+19
(PID.TID 0000.0001) %MON vort_r_min                   =  -4.8270371277897E-05
(PID.TID 0000.0001) %MON vort_r_max                   =   5.4582711183880E-05
(PID.TID 0000.0001) %MON vort_a_mean                  =  -2.9101960907619E-20
(PID.TID 0000.0001) %MON vort_a_sd                    =   8.5819929974217E-05
(PID.TID 0000.0001) %MON vort_p_mean                  =  -2.9101957133406E-20
(PID.TID 0000.0001) %MON vort_p_sd                    =   8.5821724850705E-05
(PID.TID 0000.0001) %MON surfExpan_theta_mean         =  -1.7518066448976E-02
(PID.TID 0000.0001) %MON surfExpan_salt_mean          =  -4.3386542072953E-06
(PID.TID 0000.0001) %MON surfExpan_Heat_mean          =  -3.0599104201219E-01
(PID.TID 0000.0001) %MON En_Budget_T2PE_mean          =   1.3990203083132E+00
(PID.TID 0000.0001) // =======================================================
(PID.TID 0000.0001) // End MONITOR dynamic field statistics
(PID.TID 0000.0001) // =======================================================
 Current Date     20040321 Current Time         1800
 cg2d: Sum(rhs),rhsMax =  -1.16415321826935E-10  1.30712861387168E+04
(PID.TID 0000.0001)                    cg2d_init_res =    5.70724384704827E+04
(PID.TID 0000.0001)                       cg2d_iters =     7
(PID.TID 0000.0001)                         cg2d_res =    8.77446714789463E-12
(PID.TID 0000.0001) // =======================================================
(PID.TID 0000.0001) // Begin MONITOR dynamic field statistics
(PID.TID 0000.0001) // =======================================================
(PID.TID 0000.0001) %MON time_tsnumber                =                     9
(PID.TID 0000.0001) %MON time_secondsf                =   1.0800000000000E+03
(PID.TID 0000.0001) %MON dynstat_eta_max              =   1.6226808366532E+02
(PID.TID 0000.0001) %MON dynstat_eta_min              =  -2.5866648768567E+02
(PID.TID 0000.0001) %MON dynstat_eta_mean             =  -2.3843029790556E-15
(PID.TID 0000.0001) %MON dynstat_eta_sd               =   4.6808165593301E+01
(PID.TID 0000.0001) %MON dynstat_eta_del2             =   1.2556286702778E+01
(PID.TID 0000.0001) %MON dynstat_uvel_max             =   4.1529251099871E+01
(PID.TID 0000.0001) %MON dynstat_uvel_min             =  -3.7122386245363E+01
(PID.TID 0000.0001) %MON dynstat_uvel_mean            =   1.6994638976304E+00
(PID.TID 0000.0001) %MON dynstat_uvel_sd              =   7.8612557056211E+00
(PID.TID 0000.0001) %MON dynstat_uvel_del2            =   3.3129329103386E-01
(PID.TID 0000.0001) %MON dynstat_vvel_max             =   3.8131427629839E+01
(PID.TID 0000.0001) %MON dynstat_vvel_min             =  -3.2945545783938E+01
(PID.TID 0000.0001) %MON dynstat_vvel_mean            =   1.6777105235785E+00
(PID.TID 0000.0001) %MON dynstat_vvel_sd              =   7.8612501626854E+00
(PID.TID 0000.0001) %MON dynstat_vvel_del2            =   3.3425827512411E-01
(PID.TID 0000.0001) %MON dynstat_wvel_max             =   5.2013136616134E-01
(PID.TID 0000.0001) %MON dynstat_wvel_min             =  -5.2215368312117E-01
(PID.TID 0000.0001) %MON dynstat_wvel_mean            =  -4.6170396896777E-18
(PID.TID 0000.0001) %MON dynstat_wvel_sd              =   4.5167526258032E-02
(PID.TID 0000.0001) %MON dynstat_wvel_del2            =   1.6747969218923E-02
(PID.TID 0000.0001) %MON dynstat_theta_max            =   4.8674341669822E+02
(PID.TID 0000.0001) %MON dynstat_theta_min            =   2.6912614946242E+02
(PID.TID 0000.0001) %MON dynstat_theta_mean           =   3.2558470153181E+02
(PID.TID 0000.0001) %MON dynstat_theta_sd             =   4.8269990448774E+01
(PID.TID 0000.0001) %MON dynstat_theta_del2           =   3.1635041093666E-01
(PID.TID 0000.0001) %MON dynstat_salt_max             =   3.9849416540461E-02
(PID.TID 0000.0001) %MON dynstat_salt_min             =  -2.9703569157144E-02
(PID.TID 0000.0001) %MON dynstat_salt_mean            =   2.5468437081918E-03
(PID.TID 0000.0001) %MON dynstat_salt_sd              =   4.4836388258019E-03
(PID.TID 0000.0001) %MON dynstat_salt_del2            =   1.3479366252794E-04
(PID.TID 0000.0001) %MON advcfl_uvel_max              =   3.1651303656825E-02
(PID.TID 0000.0001) %MON advcfl_vvel_max              =   3.5189666509736E-02
(PID.TID 0000.0001) %MON advcfl_wvel_max              =   1.2397792238730E-02
(PID.TID 0000.0001) %MON advcfl_W_hf_max              =   1.2406717505956E-02
(PID.TID 0000.0001) %MON pe_b_mean                    =   8.8236323898221E-03
(PID.TID 0000.0001) %MON ke_max                       =   8.5735942004016E+02
(PID.TID 0000.0001) %MON ke_mean                      =   6.4650742779013E+01
(PID.TID 0000.0001) %MON ke_vol                       =   5.1537074390047E+19
(PID.TID 0000.0001) %MON vort_r_min                   =  -4.8256983531770E-05
(PID.TID 0000.0001) %MON vort_r_max                   =   5.4604604681995E-05
(PID.TID 0000.0001) %MON vort_a_mean                  =   6.0629085224206E-20
(PID.TID 0000.0001) %MON vort_a_sd                    =   8.5819306378647E-05
(PID.TID 0000.0001) %MON vort_p_mean                  =   6.5479401328500E-20
(PID.TID 0000.0001) %MON vort_p_sd                    =   8.5821626291001E-05
(PID.TID 0000.0001) %MON surfExpan_theta_mean         =  -5.2622023172428E-02
(PID.TID 0000.0001) %MON surfExpan_salt_mean          =   2.5877382472369E-06
(PID.TID 0000.0001) %MON surfExpan_Heat_mean          =  -2.5101088344311E+00
(PID.TID 0000.0001) %MON En_Budget_T2PE_mean          =   3.6060507942060E+00
(PID.TID 0000.0001) // =======================================================
(PID.TID 0000.0001) // End MONITOR dynamic field statistics
(PID.TID 0000.0001) // =======================================================
 Current Date     20040321 Current Time         2000
 cg2d: Sum(rhs),rhsMax =   4.65661287307739E-10  2.04241069125483E+04
(PID.TID 0000.0001)                    cg2d_init_res =    7.81228952319672E+04
(PID.TID 0000.0001)                       cg2d_iters =     7
(PID.TID 0000.0001)                         cg2d_res =    1.16053673442513E-11
(PID.TID 0000.0001) // =======================================================
(PID.TID 0000.0001) // Begin MONITOR dynamic field statistics
(PID.TID 0000.0001) // =======================================================
(PID.TID 0000.0001) %MON time_tsnumber                =                    10
(PID.TID 0000.0001) %MON time_secondsf                =   1.2000000000000E+03
(PID.TID 0000.0001) %MON dynstat_eta_max              =   2.8453588219850E+02
(PID.TID 0000.0001) %MON dynstat_eta_min              =  -3.0642289768677E+02
(PID.TID 0000.0001) %MON dynstat_eta_mean             =  -1.0729363405750E-14
(PID.TID 0000.0001) %MON dynstat_eta_sd               =   6.0374209230178E+01
(PID.TID 0000.0001) %MON dynstat_eta_del2             =   1.7815764939880E+01
(PID.TID 0000.0001) %MON dynstat_uvel_max             =   4.1516766207352E+01
(PID.TID 0000.0001) %MON dynstat_uvel_min             =  -3.7145274540248E+01
(PID.TID 0000.0001) %MON dynstat_uvel_mean            =   1.6992374635913E+00
(PID.TID 0000.0001) %MON dynstat_uvel_sd              =   7.8635467467167E+00
(PID.TID 0000.0001) %MON dynstat_uvel_del2            =   3.4505979718646E-01
(PID.TID 0000.0001) %MON dynstat_vvel_max             =   3.8113271464690E+01
(PID.TID 0000.0001) %MON dynstat_vvel_min             =  -3.2933226579121E+01
(PID.TID 0000.0001) %MON dynstat_vvel_mean            =   1.6781754196198E+00
(PID.TID 0000.0001) %MON dynstat_vvel_sd              =   7.8658246500145E+00
(PID.TID 0000.0001) %MON dynstat_vvel_del2            =   3.4700845919623E-01
(PID.TID 0000.0001) %MON dynstat_wvel_max             =   8.6694966472586E-01
(PID.TID 0000.0001) %MON dynstat_wvel_min             =  -8.5490102521453E-01
(PID.TID 0000.0001) %MON dynstat_wvel_mean            =  -1.5920826516130E-18
(PID.TID 0000.0001) %MON dynstat_wvel_sd              =   6.5608524513540E-02
(PID.TID 0000.0001) %MON dynstat_wvel_del2            =   2.3604691824981E-02
(PID.TID 0000.0001) %MON dynstat_theta_max            =   4.8684084319472E+02
(PID.TID 0000.0001) %MON dynstat_theta_min            =   2.6912784283442E+02
(PID.TID 0000.0001) %MON dynstat_theta_mean           =   3.2571045496468E+02
(PID.TID 0000.0001) %MON dynstat_theta_sd             =   4.8400772996860E+01
(PID.TID 0000.0001) %MON dynstat_theta_del2           =   3.6890130329636E-01
(PID.TID 0000.0001) %MON dynstat_salt_max             =   4.4582373361968E-02
(PID.TID 0000.0001) %MON dynstat_salt_min             =  -4.0499098919521E-02
(PID.TID 0000.0001) %MON dynstat_salt_mean            =   2.5174024053293E-03
(PID.TID 0000.0001) %MON dynstat_salt_sd              =   4.6122684249634E-03
(PID.TID 0000.0001) %MON dynstat_salt_del2            =   1.5850438945470E-04
(PID.TID 0000.0001) %MON advcfl_uvel_max              =   3.1653145785664E-02
(PID.TID 0000.0001) %MON advcfl_vvel_max              =   3.5167399365146E-02
(PID.TID 0000.0001) %MON advcfl_wvel_max              =   2.0584479574021E-02
(PID.TID 0000.0001) %MON advcfl_W_hf_max              =   2.0551487384919E-02
(PID.TID 0000.0001) %MON pe_b_mean                    =   1.4679358406208E-02
(PID.TID 0000.0001) %MON ke_max                       =   8.5710239318427E+02
(PID.TID 0000.0001) %MON ke_mean                      =   6.4705122788343E+01
(PID.TID 0000.0001) %MON ke_vol                       =   5.1537074390047E+19
(PID.TID 0000.0001) %MON vort_r_min                   =  -4.8242667568289E-05
(PID.TID 0000.0001) %MON vort_r_max                   =   5.4626074468844E-05
(PID.TID 0000.0001) %MON vort_a_mean                  =  -1.3338398749325E-19
(PID.TID 0000.0001) %MON vort_a_sd                    =   8.5818637177413E-05
(PID.TID 0000.0001) %MON vort_p_mean                  =  -1.3338396070993E-19
(PID.TID 0000.0001) %MON vort_p_sd                    =   8.5821541194746E-05
(PID.TID 0000.0001) %MON surfExpan_theta_mean         =  -1.0781665321668E-01
(PID.TID 0000.0001) %MON surfExpan_salt_mean          =   1.4469237000039E-05
(PID.TID 0000.0001) %MON surfExpan_Heat_mean          =  -6.0448894476660E+00
(PID.TID 0000.0001) %MON En_Budget_T2PE_mean          =   7.2852447022339E+00
(PID.TID 0000.0001) // =======================================================
(PID.TID 0000.0001) // End MONITOR dynamic field statistics
(PID.TID 0000.0001) // =======================================================
 Current Date     20040321 Current Time         2200
 cg2d: Sum(rhs),rhsMax =  -9.31322574615479E-10  3.18858706538866E+04
(PID.TID 0000.0001)                    cg2d_init_res =    1.02266354388254E+05
(PID.TID 0000.0001)                       cg2d_iters =     7
(PID.TID 0000.0001)                         cg2d_res =    1.48502162348267E-11
(PID.TID 0000.0001) // =======================================================
(PID.TID 0000.0001) // Begin MONITOR dynamic field statistics
(PID.TID 0000.0001) // =======================================================
(PID.TID 0000.0001) %MON time_tsnumber                =                    11
(PID.TID 0000.0001) %MON time_secondsf                =   1.3200000000000E+03
(PID.TID 0000.0001) %MON dynstat_eta_max              =   4.5111094136793E+02
(PID.TID 0000.0001) %MON dynstat_eta_min              =  -4.4081169809658E+02
(PID.TID 0000.0001) %MON dynstat_eta_mean             =   5.5633736177965E-15
(PID.TID 0000.0001) %MON dynstat_eta_sd               =   7.8346449017268E+01
(PID.TID 0000.0001) %MON dynstat_eta_del2             =   2.4574686608591E+01
(PID.TID 0000.0001) %MON dynstat_uvel_max             =   4.1505887228493E+01
(PID.TID 0000.0001) %MON dynstat_uvel_min             =  -3.7166581882987E+01
(PID.TID 0000.0001) %MON dynstat_uvel_mean            =   1.6990868971700E+00
(PID.TID 0000.0001) %MON dynstat_uvel_sd              =   7.8695921082873E+00
(PID.TID 0000.0001) %MON dynstat_uvel_del2            =   3.6271914200539E-01
(PID.TID 0000.0001) %MON dynstat_vvel_max             =   3.8095319782022E+01
(PID.TID 0000.0001) %MON dynstat_vvel_min             =  -3.2917663561764E+01
(PID.TID 0000.0001) %MON dynstat_vvel_mean            =   1.6786166371130E+00
(PID.TID 0000.0001) %MON dynstat_vvel_sd              =   7.8737296778730E+00
(PID.TID 0000.0001) %MON dynstat_vvel_del2            =   3.6336702638225E-01
(PID.TID 0000.0001) %MON dynstat_wvel_max             =   1.2889763053460E+00
(PID.TID 0000.0001) %MON dynstat_wvel_min             =  -1.2623417067456E+00
(PID.TID 0000.0001) %MON dynstat_wvel_mean            =  -1.2099828152259E-17
(PID.TID 0000.0001) %MON dynstat_wvel_sd              =   9.2631249203238E-02
(PID.TID 0000.0001) %MON dynstat_wvel_del2            =   3.1963373695481E-02
(PID.TID 0000.0001) %MON dynstat_theta_max            =   4.8693803641252E+02
(PID.TID 0000.0001) %MON dynstat_theta_min            =   2.6912953911574E+02
(PID.TID 0000.0001) %MON dynstat_theta_mean           =   3.2574377871299E+02
(PID.TID 0000.0001) %MON dynstat_theta_sd             =   4.8435481692895E+01
(PID.TID 0000.0001) %MON dynstat_theta_del2           =   3.5442309324007E-01
(PID.TID 0000.0001) %MON dynstat_salt_max             =   3.8068593001372E-02
(PID.TID 0000.0001) %MON dynstat_salt_min             =  -4.1120494744592E-02
(PID.TID 0000.0001) %MON dynstat_salt_mean            =   2.5116461064349E-03
(PID.TID 0000.0001) %MON dynstat_salt_sd              =   4.5299011977168E-03
(PID.TID 0000.0001) %MON dynstat_salt_del2            =   1.5414957278051E-04
(PID.TID 0000.0001) %MON advcfl_uvel_max              =   3.1653477297671E-02
(PID.TID 0000.0001) %MON advcfl_vvel_max              =   3.5144677359420E-02
(PID.TID 0000.0001) %MON advcfl_wvel_max              =   3.0604898425312E-02
(PID.TID 0000.0001) %MON advcfl_W_hf_max              =   3.0518988775578E-02
(PID.TID 0000.0001) %MON pe_b_mean                    =   2.4719677339097E-02
(PID.TID 0000.0001) %MON ke_max                       =   8.5709769929963E+02
(PID.TID 0000.0001) %MON ke_mean                      =   6.4815374546021E+01
(PID.TID 0000.0001) %MON ke_vol                       =   5.1537074390047E+19
(PID.TID 0000.0001) %MON vort_r_min                   =  -4.8227506846413E-05
(PID.TID 0000.0001) %MON vort_r_max                   =   5.4647133835375E-05
(PID.TID 0000.0001) %MON vort_a_mean                  =   1.4550980453809E-20
(PID.TID 0000.0001) %MON vort_a_sd                    =   8.5817910365919E-05
(PID.TID 0000.0001) %MON vort_p_mean                  =   1.2125814119736E-20
(PID.TID 0000.0001) %MON vort_p_sd                    =   8.5821454233222E-05
(PID.TID 0000.0001) %MON surfExpan_theta_mean         =  -1.4263445742159E-01
(PID.TID 0000.0001) %MON surfExpan_salt_mean          =   2.0993962333161E-05
(PID.TID 0000.0001) %MON surfExpan_Heat_mean          =  -8.2312367701832E+00
(PID.TID 0000.0001) %MON En_Budget_T2PE_mean          =   1.0011637825082E+01
(PID.TID 0000.0001) // =======================================================
(PID.TID 0000.0001) // End MONITOR dynamic field statistics
(PID.TID 0000.0001) // =======================================================
 Current Date     20040321 Current Time         2400
 cg2d: Sum(rhs),rhsMax =   0.00000000000000E+00  4.53041945805490E+04
(PID.TID 0000.0001)                    cg2d_init_res =    1.17952234254251E+05
(PID.TID 0000.0001)                       cg2d_iters =     7
(PID.TID 0000.0001)                         cg2d_res =    1.82262137978155E-11
(PID.TID 0000.0001) // =======================================================
(PID.TID 0000.0001) // Begin MONITOR dynamic field statistics
(PID.TID 0000.0001) // =======================================================
(PID.TID 0000.0001) %MON time_tsnumber                =                    12
(PID.TID 0000.0001) %MON time_secondsf                =   1.4400000000000E+03
(PID.TID 0000.0001) %MON dynstat_eta_max              =   6.4226514911325E+02
(PID.TID 0000.0001) %MON dynstat_eta_min              =  -6.3118158732050E+02
(PID.TID 0000.0001) %MON dynstat_eta_mean             =   1.7484888513075E-14
(PID.TID 0000.0001) %MON dynstat_eta_sd               =   9.9962155176879E+01
(PID.TID 0000.0001) %MON dynstat_eta_del2             =   3.2048752413725E+01
(PID.TID 0000.0001) %MON dynstat_uvel_max             =   4.1496607337543E+01
(PID.TID 0000.0001) %MON dynstat_uvel_min             =  -3.7186205811441E+01
(PID.TID 0000.0001) %MON dynstat_uvel_mean            =   1.6989926443034E+00
(PID.TID 0000.0001) %MON dynstat_uvel_sd              =   7.8774889285598E+00
(PID.TID 0000.0001) %MON dynstat_uvel_del2            =   3.7953437299518E-01
(PID.TID 0000.0001) %MON dynstat_vvel_max             =   3.8077648144952E+01
(PID.TID 0000.0001) %MON dynstat_vvel_min             =  -3.2898930149973E+01
(PID.TID 0000.0001) %MON dynstat_vvel_mean            =   1.6790624465122E+00
(PID.TID 0000.0001) %MON dynstat_vvel_sd              =   7.8831442670646E+00
(PID.TID 0000.0001) %MON dynstat_vvel_del2            =   3.7895849743986E-01
(PID.TID 0000.0001) %MON dynstat_wvel_max             =   1.6708984867258E+00
(PID.TID 0000.0001) %MON dynstat_wvel_min             =  -1.6293659324145E+00
(PID.TID 0000.0001) %MON dynstat_wvel_mean            =  -1.5920826516130E-19
(PID.TID 0000.0001) %MON dynstat_wvel_sd              =   1.1759060744315E-01
(PID.TID 0000.0001) %MON dynstat_wvel_del2            =   3.9280128415104E-02
(PID.TID 0000.0001) %MON dynstat_theta_max            =   4.8703497473537E+02
(PID.TID 0000.0001) %MON dynstat_theta_min            =   2.6042630661021E+02
(PID.TID 0000.0001) %MON dynstat_theta_mean           =   3.2577705925376E+02
(PID.TID 0000.0001) %MON dynstat_theta_sd             =   4.8473455237921E+01
(PID.TID 0000.0001) %MON dynstat_theta_del2           =   3.4606186566035E-01
(PID.TID 0000.0001) %MON dynstat_salt_max             =   6.5123291217074E-02
(PID.TID 0000.0001) %MON dynstat_salt_min             =  -5.8670357623590E-02
(PID.TID 0000.0001) %MON dynstat_salt_mean            =   2.5059002828502E-03
(PID.TID 0000.0001) %MON dynstat_salt_sd              =   4.4817726312373E-03
(PID.TID 0000.0001) %MON dynstat_salt_del2            =   1.5600182051431E-04
(PID.TID 0000.0001) %MON advcfl_uvel_max              =   3.1650898747278E-02
(PID.TID 0000.0001) %MON advcfl_vvel_max              =   3.5121502219470E-02
(PID.TID 0000.0001) %MON advcfl_wvel_max              =   3.9673094263375E-02
(PID.TID 0000.0001) %MON advcfl_W_hf_max              =   3.9496823495389E-02
(PID.TID 0000.0001) %MON pe_b_mean                    =   4.0241613450914E-02
(PID.TID 0000.0001) %MON ke_max                       =   8.5709513099300E+02
(PID.TID 0000.0001) %MON ke_mean                      =   6.4952311021488E+01
(PID.TID 0000.0001) %MON ke_vol                       =   5.1537074390046E+19
(PID.TID 0000.0001) %MON vort_r_min                   =  -4.8211583122454E-05
(PID.TID 0000.0001) %MON vort_r_max                   =   5.4667796530477E-05
(PID.TID 0000.0001) %MON vort_a_mean                  =  -3.1527124316587E-20
(PID.TID 0000.0001) %MON vort_a_sd                    =   8.5817155991111E-05
(PID.TID 0000.0001) %MON vort_p_mean                  =  -3.6377440768851E-20
(PID.TID 0000.0001) %MON vort_p_sd                    =   8.5821392042131E-05
(PID.TID 0000.0001) %MON surfExpan_theta_mean         =  -1.6226152703641E-01
(PID.TID 0000.0001) %MON surfExpan_salt_mean          =   2.3987895113921E-05
(PID.TID 0000.0001) %MON surfExpan_Heat_mean          =  -9.4179311349299E+00
(PID.TID 0000.0001) %MON En_Budget_T2PE_mean          =   1.2027067736283E+01
(PID.TID 0000.0001) // =======================================================
(PID.TID 0000.0001) // End MONITOR dynamic field statistics
(PID.TID 0000.0001) // =======================================================
 Current Date     20040321 Current Time         2600
 cg2d: Sum(rhs),rhsMax =  -4.65661287307739E-10  5.90040745193586E+04
(PID.TID 0000.0001)                    cg2d_init_res =    1.25137730547627E+05
(PID.TID 0000.0001)                       cg2d_iters =     7
(PID.TID 0000.0001)                         cg2d_res =    2.15106267100280E-11
(PID.TID 0000.0001) // =======================================================
(PID.TID 0000.0001) // Begin MONITOR dynamic field statistics
(PID.TID 0000.0001) // =======================================================
(PID.TID 0000.0001) %MON time_tsnumber                =                    13
(PID.TID 0000.0001) %MON time_secondsf                =   1.5600000000000E+03
(PID.TID 0000.0001) %MON dynstat_eta_max              =   8.3776228725846E+02
(PID.TID 0000.0001) %MON dynstat_eta_min              =  -8.2561667663746E+02
(PID.TID 0000.0001) %MON dynstat_eta_mean             =   1.5895353193704E-15
(PID.TID 0000.0001) %MON dynstat_eta_sd               =   1.2368033045195E+02
(PID.TID 0000.0001) %MON dynstat_eta_del2             =   3.9487776488815E+01
(PID.TID 0000.0001) %MON dynstat_uvel_max             =   4.1488880632049E+01
(PID.TID 0000.0001) %MON dynstat_uvel_min             =  -3.7204039810710E+01
(PID.TID 0000.0001) %MON dynstat_uvel_mean            =   1.6989542697793E+00
(PID.TID 0000.0001) %MON dynstat_uvel_sd              =   7.8864145420804E+00
(PID.TID 0000.0001) %MON dynstat_uvel_del2            =   3.9603354237958E-01
(PID.TID 0000.0001) %MON dynstat_vvel_max             =   3.8060288476680E+01
(PID.TID 0000.0001) %MON dynstat_vvel_min             =  -3.2877125161188E+01
(PID.TID 0000.0001) %MON dynstat_vvel_mean            =   1.6795080320925E+00
(PID.TID 0000.0001) %MON dynstat_vvel_sd              =   7.8933331567554E+00
(PID.TID 0000.0001) %MON dynstat_vvel_del2            =   3.9431502304559E-01
(PID.TID 0000.0001) %MON dynstat_wvel_max             =   2.0104293250379E+00
(PID.TID 0000.0001) %MON dynstat_wvel_min             =  -1.9530941681864E+00
(PID.TID 0000.0001) %MON dynstat_wvel_mean            =  -8.5972463187102E-18
(PID.TID 0000.0001) %MON dynstat_wvel_sd              =   1.3998111203339E-01
(PID.TID 0000.0001) %MON dynstat_wvel_del2            =   4.5570030466244E-02
(PID.TID 0000.0001) %MON dynstat_theta_max            =   4.8713168288528E+02
(PID.TID 0000.0001) %MON dynstat_theta_min            =   2.4102502187544E+02
(PID.TID 0000.0001) %MON dynstat_theta_mean           =   3.2581009342106E+02
(PID.TID 0000.0001) %MON dynstat_theta_sd             =   4.8513913791441E+01
(PID.TID 0000.0001) %MON dynstat_theta_del2           =   3.3833357658636E-01
(PID.TID 0000.0001) %MON dynstat_salt_max             =   8.1942700875299E-02
(PID.TID 0000.0001) %MON dynstat_salt_min             =  -8.7762539975388E-02
(PID.TID 0000.0001) %MON dynstat_salt_mean            =   2.5001596443152E-03
(PID.TID 0000.0001) %MON dynstat_salt_sd              =   4.4372354912525E-03
(PID.TID 0000.0001) %MON dynstat_salt_del2            =   1.5515384218019E-04
(PID.TID 0000.0001) %MON advcfl_uvel_max              =   3.1644626100708E-02
(PID.TID 0000.0001) %MON advcfl_vvel_max              =   3.5098023035463E-02
(PID.TID 0000.0001) %MON advcfl_wvel_max              =   4.7734768303235E-02
(PID.TID 0000.0001) %MON advcfl_W_hf_max              =   4.7433375308917E-02
(PID.TID 0000.0001) %MON pe_b_mean                    =   6.1603507063205E-02
(PID.TID 0000.0001) %MON ke_max                       =   8.5709908856323E+02
(PID.TID 0000.0001) %MON ke_mean                      =   6.5103717726806E+01
(PID.TID 0000.0001) %MON ke_vol                       =   5.1537074390047E+19
(PID.TID 0000.0001) %MON vort_r_min                   =  -4.8194972489685E-05
(PID.TID 0000.0001) %MON vort_r_max                   =   5.4688076385576E-05
(PID.TID 0000.0001) %MON vort_a_mean                  =  -7.2754902269047E-20
(PID.TID 0000.0001) %MON vort_a_sd                    =   8.5816325888800E-05
(PID.TID 0000.0001) %MON vort_p_mean                  =  -7.7605203323864E-20
(PID.TID 0000.0001) %MON vort_p_sd                    =   8.5821304031983E-05
(PID.TID 0000.0001) %MON surfExpan_theta_mean         =  -1.7053751881208E-01
(PID.TID 0000.0001) %MON surfExpan_salt_mean          =   2.4350189019193E-05
(PID.TID 0000.0001) %MON surfExpan_Heat_mean          =  -9.8704014411563E+00
(PID.TID 0000.0001) %MON En_Budget_T2PE_mean          =   1.3406965131987E+01
(PID.TID 0000.0001) // =======================================================
(PID.TID 0000.0001) // End MONITOR dynamic field statistics
(PID.TID 0000.0001) // =======================================================
 Current Date     20040321 Current Time         2800
 cg2d: Sum(rhs),rhsMax =   4.65661287307739E-10  7.16278230122674E+04
(PID.TID 0000.0001)                    cg2d_init_res =    1.25275025896305E+05
(PID.TID 0000.0001)                       cg2d_iters =     7
(PID.TID 0000.0001)                         cg2d_res =    2.44511154131793E-11
(PID.TID 0000.0001) // =======================================================
(PID.TID 0000.0001) // Begin MONITOR dynamic field statistics
(PID.TID 0000.0001) // =======================================================
(PID.TID 0000.0001) %MON time_tsnumber                =                    14
(PID.TID 0000.0001) %MON time_secondsf                =   1.6800000000000E+03
(PID.TID 0000.0001) %MON dynstat_eta_max              =   1.0181291013275E+03
(PID.TID 0000.0001) %MON dynstat_eta_min              =  -1.0047152385227E+03
(PID.TID 0000.0001) %MON dynstat_eta_mean             =  -1.3511050214649E-14
(PID.TID 0000.0001) %MON dynstat_eta_sd               =   1.4787410801999E+02
(PID.TID 0000.0001) %MON dynstat_eta_del2             =   4.6216024862072E+01
(PID.TID 0000.0001) %MON dynstat_uvel_max             =   4.1482625667292E+01
(PID.TID 0000.0001) %MON dynstat_uvel_min             =  -3.7219975847162E+01
(PID.TID 0000.0001) %MON dynstat_uvel_mean            =   1.6989747916557E+00
(PID.TID 0000.0001) %MON dynstat_uvel_sd              =   7.8959279604323E+00
(PID.TID 0000.0001) %MON dynstat_uvel_del2            =   4.1274021020350E-01
(PID.TID 0000.0001) %MON dynstat_vvel_max             =   3.8043225441997E+01
(PID.TID 0000.0001) %MON dynstat_vvel_min             =  -3.3416405201459E+01
(PID.TID 0000.0001) %MON dynstat_vvel_mean            =   1.6799540099254E+00
(PID.TID 0000.0001) %MON dynstat_vvel_sd              =   7.9038891498428E+00
(PID.TID 0000.0001) %MON dynstat_vvel_del2            =   4.0984761508479E-01
(PID.TID 0000.0001) %MON dynstat_wvel_max             =   2.3051948987360E+00
(PID.TID 0000.0001) %MON dynstat_wvel_min             =  -2.2308050085420E+00
(PID.TID 0000.0001) %MON dynstat_wvel_mean            =   3.1841653032260E-18
(PID.TID 0000.0001) %MON dynstat_wvel_sd              =   1.5969275620034E-01
(PID.TID 0000.0001) %MON dynstat_wvel_del2            =   5.0828683763249E-02
(PID.TID 0000.0001) %MON dynstat_theta_max            =   4.8722813340541E+02
(PID.TID 0000.0001) %MON dynstat_theta_min            =   2.2142956737123E+02
(PID.TID 0000.0001) %MON dynstat_theta_mean           =   3.2584312250335E+02
(PID.TID 0000.0001) %MON dynstat_theta_sd             =   4.8556220461375E+01
(PID.TID 0000.0001) %MON dynstat_theta_del2           =   3.3421825234091E-01
(PID.TID 0000.0001) %MON dynstat_salt_max             =   9.7726458701154E-02
(PID.TID 0000.0001) %MON dynstat_salt_min             =  -1.1662388133943E-01
(PID.TID 0000.0001) %MON dynstat_salt_mean            =   2.4944201613708E-03
(PID.TID 0000.0001) %MON dynstat_salt_sd              =   4.4084554868874E-03
(PID.TID 0000.0001) %MON dynstat_salt_del2            =   1.5797342975586E-04
(PID.TID 0000.0001) %MON advcfl_uvel_max              =   3.1634543728734E-02
(PID.TID 0000.0001) %MON advcfl_vvel_max              =   3.5074525538029E-02
(PID.TID 0000.0001) %MON advcfl_wvel_max              =   5.4733555173787E-02
(PID.TID 0000.0001) %MON advcfl_W_hf_max              =   5.4283646273286E-02
(PID.TID 0000.0001) %MON pe_b_mean                    =   8.8061978615226E-02
(PID.TID 0000.0001) %MON ke_max                       =   8.5711362858243E+02
(PID.TID 0000.0001) %MON ke_mean                      =   6.5262951400000E+01
(PID.TID 0000.0001) %MON ke_vol                       =   5.1537074390047E+19
(PID.TID 0000.0001) %MON vort_r_min                   =  -4.8177744232230E-05
(PID.TID 0000.0001) %MON vort_r_max                   =   5.4707987805155E-05
(PID.TID 0000.0001) %MON vort_a_mean                  =  -8.0030392495952E-20
(PID.TID 0000.0001) %MON vort_a_sd                    =   8.5815498365886E-05
(PID.TID 0000.0001) %MON vort_p_mean                  =  -8.4880686862286E-20
(PID.TID 0000.0001) %MON vort_p_sd                    =   8.5821266081828E-05
(PID.TID 0000.0001) %MON surfExpan_theta_mean         =  -1.7207805928050E-01
(PID.TID 0000.0001) %MON surfExpan_salt_mean          =   2.3050555151076E-05
(PID.TID 0000.0001) %MON surfExpan_Heat_mean          =  -9.8883852918118E+00
(PID.TID 0000.0001) %MON En_Budget_T2PE_mean          =   1.4279633397019E+01
(PID.TID 0000.0001) // =======================================================
(PID.TID 0000.0001) // End MONITOR dynamic field statistics
(PID.TID 0000.0001) // =======================================================
 Current Date     20040321 Current Time         3000
 cg2d: Sum(rhs),rhsMax =   0.00000000000000E+00  8.39014352770140E+04
(PID.TID 0000.0001)                    cg2d_init_res =    1.20979863597505E+05
(PID.TID 0000.0001)                       cg2d_iters =     7
(PID.TID 0000.0001)                         cg2d_res =    2.68372108967117E-11
(PID.TID 0000.0001) // =======================================================
(PID.TID 0000.0001) // Begin MONITOR dynamic field statistics
(PID.TID 0000.0001) // =======================================================
(PID.TID 0000.0001) %MON time_tsnumber                =                    15
(PID.TID 0000.0001) %MON time_secondsf                =   1.8000000000000E+03
(PID.TID 0000.0001) %MON dynstat_eta_max              =   1.1657422252433E+03
(PID.TID 0000.0001) %MON dynstat_eta_min              =  -1.1511642598393E+03
(PID.TID 0000.0001) %MON dynstat_eta_mean             =   9.5372119162225E-15
(PID.TID 0000.0001) %MON dynstat_eta_sd               =   1.7118402440905E+02
(PID.TID 0000.0001) %MON dynstat_eta_del2             =   5.1700027624206E+01
(PID.TID 0000.0001) %MON dynstat_uvel_max             =   4.1477733236708E+01
(PID.TID 0000.0001) %MON dynstat_uvel_min             =  -3.7233909470728E+01
(PID.TID 0000.0001) %MON dynstat_uvel_mean            =   1.6990547877059E+00
(PID.TID 0000.0001) %MON dynstat_uvel_sd              =   7.9056281853937E+00
(PID.TID 0000.0001) %MON dynstat_uvel_del2            =   4.2973289748142E-01
(PID.TID 0000.0001) %MON dynstat_vvel_max             =   3.8026393308516E+01
(PID.TID 0000.0001) %MON dynstat_vvel_min             =  -3.4806339060363E+01
(PID.TID 0000.0001) %MON dynstat_vvel_mean            =   1.6803978753266E+00
(PID.TID 0000.0001) %MON dynstat_vvel_sd              =   7.9144551078306E+00
(PID.TID 0000.0001) %MON dynstat_vvel_del2            =   4.2549119192694E-01
(PID.TID 0000.0001) %MON dynstat_wvel_max             =   2.5535419040844E+00
(PID.TID 0000.0001) %MON dynstat_wvel_min             =  -2.4608859435241E+00
(PID.TID 0000.0001) %MON dynstat_wvel_mean            =  -4.4578314245164E-18
(PID.TID 0000.0001) %MON dynstat_wvel_sd              =   1.7679733411142E-01
(PID.TID 0000.0001) %MON dynstat_wvel_del2            =   5.5139411709041E-02
(PID.TID 0000.0001) %MON dynstat_theta_max            =   4.8732475655705E+02
(PID.TID 0000.0001) %MON dynstat_theta_min            =   2.1154348569544E+02
(PID.TID 0000.0001) %MON dynstat_theta_mean           =   3.2587589442012E+02
(PID.TID 0000.0001) %MON dynstat_theta_sd             =   4.8599811945275E+01
(PID.TID 0000.0001) %MON dynstat_theta_del2           =   3.3229171367544E-01
(PID.TID 0000.0001) %MON dynstat_salt_max             =   1.0236528063229E-01
(PID.TID 0000.0001) %MON dynstat_salt_min             =  -1.4515974902726E-01
(PID.TID 0000.0001) %MON dynstat_salt_mean            =   2.4886826098685E-03
(PID.TID 0000.0001) %MON dynstat_salt_sd              =   4.3829378468503E-03
(PID.TID 0000.0001) %MON dynstat_salt_del2            =   1.6069989269217E-04
(PID.TID 0000.0001) %MON advcfl_uvel_max              =   3.1621038502644E-02
(PID.TID 0000.0001) %MON advcfl_vvel_max              =   3.5051359227712E-02
(PID.TID 0000.0001) %MON advcfl_wvel_max              =   6.0630199542960E-02
(PID.TID 0000.0001) %MON advcfl_W_hf_max              =   6.0025591298742E-02
(PID.TID 0000.0001) %MON pe_b_mean                    =   1.1801321106814E-01
(PID.TID 0000.0001) %MON ke_max                       =   8.5714241824652E+02
(PID.TID 0000.0001) %MON ke_mean                      =   6.5424040376134E+01
(PID.TID 0000.0001) %MON ke_vol                       =   5.1537074390047E+19
(PID.TID 0000.0001) %MON vort_r_min                   =  -4.8159962899527E-05
(PID.TID 0000.0001) %MON vort_r_max                   =   5.4727545779387E-05
(PID.TID 0000.0001) %MON vort_a_mean                  =   2.1583954339817E-19
(PID.TID 0000.0001) %MON vort_a_sd                    =   8.5814610272230E-05
(PID.TID 0000.0001) %MON vort_p_mean                  =   2.1826461165595E-19
(PID.TID 0000.0001) %MON vort_p_sd                    =   8.5821212507274E-05
(PID.TID 0000.0001) %MON surfExpan_theta_mean         =  -1.7131429589211E-01
(PID.TID 0000.0001) %MON surfExpan_salt_mean          =   2.1041747409572E-05
(PID.TID 0000.0001) %MON surfExpan_Heat_mean          =  -9.7716616045541E+00
(PID.TID 0000.0001) %MON En_Budget_T2PE_mean          =   1.4744495759536E+01
(PID.TID 0000.0001) // =======================================================
(PID.TID 0000.0001) // End MONITOR dynamic field statistics
(PID.TID 0000.0001) // =======================================================
 Computing Diagnostic # 209  RADSWT       Counter:      15   Parms: SM      U1      
 Computing Diagnostic # 232  OSR          Counter:      15   Parms: SM      U1      
 Computing Diagnostic # 198  OLR          Counter:       1   Parms: SM      U1      
 Computing Diagnostic # 371  PLALBEDO     Counter:      15   Parms: SM      L1      
 Computing Diagnostic # 262  CLDFRC       Counter:       1   Parms: SM P    M1      
 Computing Diagnostic # 182  PREACC       Counter:       3   Parms: SM      L1      
 Computing Diagnostic # 183  PRECON       Counter:       3   Parms: SM      L1      
 Computing Diagnostic # 213  EVAP         Counter:       8   Parms: SM      L1      
 Computing Diagnostic # 166  RADSWG       Counter:      15   Parms: SM      L1      
 Computing Diagnostic # 342  ALBNIRDF     Counter:       1   Parms: SM      L1      
 Computing Diagnostic # 340  ALBVISDF     Counter:       1   Parms: SM      L1      
 Computing Diagnostic # 207  LWGDOWN      Counter:       8   Parms: SM      L1      
 Computing Diagnostic # 197  LWGUP        Counter:      15   Parms: SM      L1      
 Computing Diagnostic # 161  EFLUX        Counter:       8   Parms: SM      L1      
 Computing Diagnostic # 160  HFLUX        Counter:       8   Parms: SM      L1      
 Computing Diagnostic # 266  T2M          Counter:       8   Parms: SM      M1      
 Computing Diagnostic # 267  Q2M          Counter:       8   Parms: SM P    M1      
 Computing Diagnostic # 162  UFLUX        Counter:       8   Parms: UM   163L1      
           Vector  Mate for  UFLUX        Diagnostic # 163  VFLUX    exists 
 Computing Diagnostic # 163  VFLUX        Counter:       8   Parms: VM   162L1      
           Vector  Mate for  VFLUX        Diagnostic # 162  UFLUX    exists 
 Computing Diagnostic # 268  U10M         Counter:       8   Parms: UM   269M1      
           Vector  Mate for  U10M         Diagnostic # 269  V10M     exists 
 Computing Diagnostic # 269  V10M         Counter:       8   Parms: VM   268M1      
           Vector  Mate for  V10M         Diagnostic # 268  U10M     exists 
 Computing Diagnostic # 240  PS           Counter:      15   Parms: SM      L1      
 Computing Diagnostic # 233  OSRCLR       Counter:      15   Parms: SM      U1      
 Computing Diagnostic # 199  OLRCLR       Counter:       1   Parms: SM      U1      
 Computing Diagnostic # 243  SWGCLR       Counter:      15   Parms: SM      L1      
 Computing Diagnostic # 200  LWGCLR       Counter:      15   Parms: SM      L1      
 Computing Diagnostic #  85  RSURF        Counter:      15   Parms: SM      M1      
 Computing Diagnostic #  29  UVEL         Counter:      -1   Parms: UU   030MR      
           Vector  Mate for  UVEL         Diagnostic #  30  VVEL     not enabled
 Computing Diagnostic #  30  VVEL         Counter:      -1   Parms: VV   029MR      
           Vector  Mate for  VVEL         Diagnostic #  29  UVEL     not enabled
 Computing Diagnostic #  63  PHIHYD       Counter:      -1   Parms: SM      MR      
 Computing Diagnostic #  31  WVEL         Counter:      -1   Parms: WM      LR      
 Computing Diagnostic #  27  SALT         Counter:      -1   Parms: SM      MR      
 Computing Diagnostic #  28  RELHUM       Counter:      -1   Parms: SM      MR      
 Computing Diagnostic #  84  RCENTER      Counter:      -1   Parms: SM      MR      
 Computing Diagnostic #  26  THETA        Counter:      -1   Parms: SM      MR      
 Computing Diagnostic #  34  UVELSQ       Counter:      -1   Parms: UU   035MR      
           Vector  Mate for  UVELSQ       Diagnostic #  35  VVELSQ   not enabled
 Computing Diagnostic #  35  VVELSQ       Counter:      -1   Parms: VV   034MR      
           Vector  Mate for  VVELSQ       Diagnostic #  34  UVELSQ   not enabled
 Computing Diagnostic #  32  THETASQ      Counter:      -1   Parms: SM      MR      
 Computing Diagnostic #  36  WVELSQ       Counter:      -1   Parms: WM      LR      
 Computing Diagnostic #  64  PHIHYDSQ     Counter:      -1   Parms: SM      MR      
 Computing Diagnostic #  33  SALTSQ       Counter:      -1   Parms: SM      MR      
 Computing Diagnostic #  37  UV_VEL_C     Counter:      -1   Parms: UM   037MR      
           Vector  Mate for  UV_VEL_C     Diagnostic #  37  UV_VEL_C not enabled
 Computing Diagnostic #  39  WU_VEL       Counter:      -1   Parms: WU      LR      
 Computing Diagnostic #  40  WV_VEL       Counter:      -1   Parms: WV      LR      
 Computing Diagnostic #  51  VVELTH       Counter:      -1   Parms: VV   050MR      
           Vector  Mate for  VVELTH       Diagnostic #  50  UVELTH   not enabled
 Computing Diagnostic #  52  WVELTH       Counter:      -1   Parms: WM      LR      
 Computing Diagnostic #  54  VVELSLT      Counter:      -1   Parms: VV   053MR      
           Vector  Mate for  VVELSLT      Diagnostic #  53  UVELSLT  not enabled
 Computing Diagnostic #  55  WVELSLT      Counter:      -1   Parms: WM      LR      
 Computing Diagnostic #  53  UVELSLT      Counter:      -1   Parms: UU   054MR      
           Vector  Mate for  UVELSLT      Diagnostic #  54  VVELSLT  not enabled
 Computing Diagnostic #  50  UVELTH       Counter:      -1   Parms: UU   051MR      
           Vector  Mate for  UVELTH       Diagnostic #  51  VVELTH   not enabled
 Computing Diagnostic #  56  UVELPHI      Counter:      -1   Parms: UU   057MR      
           Vector  Mate for  UVELPHI      Diagnostic #  57  VVELPHI  not enabled
 Computing Diagnostic #  57  VVELPHI      Counter:      -1   Parms: VV   056MR      
           Vector  Mate for  VVELPHI      Diagnostic #  56  UVELPHI  not enabled
 Compute Stats, Diag. # 209  RADSWT    vol(  0 ): 7.648E+15  Parms: SM      U1      
 Compute Stats, Diag. # 232  OSR       vol(  0 ): 7.648E+15  Parms: SM      U1      
 Compute Stats, Diag. # 198  OLR       vol(  0 ): 5.099E+14  Parms: SM      U1      
 Compute Stats, Diag. # 371  PLALBEDO  vol(  0 ): 7.648E+15  Parms: SM      L1      
 Compute Stats, Diag. # 262  CLDFRC    vol(  0 ): 5.099E+14  Parms: SM P    M1      
 Compute Stats, Diag. # 182  PREACC    vol(  0 ): 1.530E+15  Parms: SM      L1      
 Compute Stats, Diag. # 183  PRECON    vol(  0 ): 1.530E+15  Parms: SM      L1      
 Compute Stats, Diag. # 213  EVAP      vol(  0 ): 4.079E+15  Parms: SM      L1      
 Compute Stats, Diag. # 166  RADSWG    vol(  0 ): 7.648E+15  Parms: SM      L1      
 Compute Stats, Diag. # 342  ALBNIRDF  vol(  0 ): 5.099E+14  Parms: SM      L1      
 Compute Stats, Diag. # 340  ALBVISDF  vol(  0 ): 5.099E+14  Parms: SM      L1      
 Compute Stats, Diag. # 207  LWGDOWN   vol(  0 ): 4.079E+15  Parms: SM      L1      
 Compute Stats, Diag. # 197  LWGUP     vol(  0 ): 7.648E+15  Parms: SM      L1      
 Compute Stats, Diag. # 161  EFLUX     vol(  0 ): 4.079E+15  Parms: SM      L1      
 Compute Stats, Diag. # 160  HFLUX     vol(  0 ): 4.079E+15  Parms: SM      L1      
 Compute Stats, Diag. # 266  T2M       vol(  0 ): 4.079E+15  Parms: SM      M1      
 Compute Stats, Diag. # 267  Q2M       vol(  0 ): 4.079E+15  Parms: SM P    M1      
 Compute Stats, Diag. # 162  UFLUX     vol(  0 ): 4.079E+15  Parms: UM   163L1      
 Compute Stats, Diag. # 163  VFLUX     vol(  0 ): 4.079E+15  Parms: VM   162L1      
 Compute Stats, Diag. # 268  U10M      vol(  0 ): 4.079E+15  Parms: UM   269M1      
 Compute Stats, Diag. # 269  V10M      vol(  0 ): 4.079E+15  Parms: VM   268M1      
 Compute Stats, Diag. # 240  PS        vol(  0 ): 7.648E+15  Parms: SM      L1      
 Compute Stats, Diag. # 233  OSRCLR    vol(  0 ): 7.648E+15  Parms: SM      U1      
 Compute Stats, Diag. # 199  OLRCLR    vol(  0 ): 5.099E+14  Parms: SM      U1      
 Compute Stats, Diag. # 243  SWGCLR    vol(  0 ): 7.648E+15  Parms: SM      L1      
 Compute Stats, Diag. # 200  LWGCLR    vol(  0 ): 7.648E+15  Parms: SM      L1      
  Writing datetime file: NYMD =     20040321 NHMS =         3000
(PID.TID 0000.0001) %CHECKPOINT        15 ckptA
(PID.TID 0000.0001)  Seconds in section "ALL                    [THE_MODEL_MAIN]":
(PID.TID 0000.0001)          User time:   58.70999908447266
(PID.TID 0000.0001)        System time:   9.189999580383301
(PID.TID 0000.0001)    Wall clock time:   128.4959859848022
(PID.TID 0000.0001)         No. starts:           1
(PID.TID 0000.0001)          No. stops:           1
(PID.TID 0000.0001)  Seconds in section "INITIALISE_FIXED       [THE_MODEL_MAIN]":
(PID.TID 0000.0001)          User time:  0.6499999761581421
(PID.TID 0000.0001)        System time:  0.1700000017881393
(PID.TID 0000.0001)    Wall clock time:   1.567116975784302
(PID.TID 0000.0001)         No. starts:           1
(PID.TID 0000.0001)          No. stops:           1
(PID.TID 0000.0001)  Seconds in section "GRIDALT_INITIALISE  [PACKAGES_INIT_F]":
(PID.TID 0000.0001)          User time:  1.9999980926513672E-002
(PID.TID 0000.0001)        System time:  9.9999979138374329E-003
(PID.TID 0000.0001)    Wall clock time:  1.6010046005249023E-002
(PID.TID 0000.0001)         No. starts:           1
(PID.TID 0000.0001)          No. stops:           1
(PID.TID 0000.0001)  Seconds in section "THE_MAIN_LOOP          [THE_MODEL_MAIN]":
(PID.TID 0000.0001)          User time:   57.33999788761139
(PID.TID 0000.0001)        System time:   8.649999693036079
(PID.TID 0000.0001)    Wall clock time:   107.5465819835663
(PID.TID 0000.0001)         No. starts:           1
(PID.TID 0000.0001)          No. stops:           1
(PID.TID 0000.0001)  Seconds in section "INITIALISE_VARIA    [THE_MAIN_LOOP]":
(PID.TID 0000.0001)          User time:  0.4400000572204590
(PID.TID 0000.0001)        System time:  0.3499999791383743
(PID.TID 0000.0001)    Wall clock time:   1.272871017456055
(PID.TID 0000.0001)         No. starts:           1
(PID.TID 0000.0001)          No. stops:           1
(PID.TID 0000.0001)  Seconds in section "GRIDALT_UPDATE  [INITIALISE_VARIA]":
(PID.TID 0000.0001)          User time:  1.0000109672546387E-002
(PID.TID 0000.0001)        System time:  0.0000000000000000E+000
(PID.TID 0000.0001)    Wall clock time:  4.7638416290283203E-003
(PID.TID 0000.0001)         No. starts:           1
(PID.TID 0000.0001)          No. stops:           1
(PID.TID 0000.0001)  Seconds in section "MAIN LOOP           [THE_MAIN_LOOP]":
(PID.TID 0000.0001)          User time:   56.64999794960022
(PID.TID 0000.0001)        System time:   8.179999709129333
(PID.TID 0000.0001)    Wall clock time:   105.7387759685516
(PID.TID 0000.0001)         No. starts:           1
(PID.TID 0000.0001)          No. stops:           1
(PID.TID 0000.0001)  Seconds in section "FORWARD_STEP        [THE_MAIN_LOOP]":
(PID.TID 0000.0001)          User time:   56.64999794960022
(PID.TID 0000.0001)        System time:   8.179999709129333
(PID.TID 0000.0001)    Wall clock time:   105.7379527091980
(PID.TID 0000.0001)         No. starts:          15
(PID.TID 0000.0001)          No. stops:          15
(PID.TID 0000.0001)  Seconds in section "DO_STATEVARS_DIAGS  [FORWARD_STEP]":
(PID.TID 0000.0001)          User time:  0.0000000000000000E+000
(PID.TID 0000.0001)        System time:  0.0000000000000000E+000
(PID.TID 0000.0001)    Wall clock time:  5.9454441070556641E-003
(PID.TID 0000.0001)         No. starts:          45
(PID.TID 0000.0001)          No. stops:          45
(PID.TID 0000.0001)  Seconds in section "LOAD_FIELDS_DRIVER  [FORWARD_STEP]":
(PID.TID 0000.0001)          User time:  0.0000000000000000E+000
(PID.TID 0000.0001)        System time:  0.0000000000000000E+000
(PID.TID 0000.0001)    Wall clock time:  2.8541088104248047E-003
(PID.TID 0000.0001)         No. starts:          15
(PID.TID 0000.0001)          No. stops:          15
(PID.TID 0000.0001)  Seconds in section "EXTERNAL_FLDS_LOAD [LOAD_FLDS_DRIVER]":
(PID.TID 0000.0001)          User time:  0.0000000000000000E+000
(PID.TID 0000.0001)        System time:  0.0000000000000000E+000
(PID.TID 0000.0001)    Wall clock time:  7.5507164001464844E-004
(PID.TID 0000.0001)         No. starts:          15
(PID.TID 0000.0001)          No. stops:          15
(PID.TID 0000.0001)  Seconds in section "DO_ATMOSPHERIC_PHYS [FORWARD_STEP]":
(PID.TID 0000.0001)          User time:   40.99999260902405
(PID.TID 0000.0001)        System time:   7.119999289512634
(PID.TID 0000.0001)    Wall clock time:   74.13042473793030
(PID.TID 0000.0001)         No. starts:          15
(PID.TID 0000.0001)          No. stops:          15
(PID.TID 0000.0001)  Seconds in section "FIZHI          [DO_ATMOSPHERIC_PHYS]":
(PID.TID 0000.0001)          User time:   40.99999260902405
(PID.TID 0000.0001)        System time:   7.119999289512634
(PID.TID 0000.0001)    Wall clock time:   74.12890291213989
(PID.TID 0000.0001)         No. starts:          15
(PID.TID 0000.0001)          No. stops:          15
(PID.TID 0000.0001)  Seconds in section "DO_FIZHI          [FIZHI_WRAPPER]":
(PID.TID 0000.0001)          User time:   39.20000326633453
(PID.TID 0000.0001)        System time:   7.079999566078186
(PID.TID 0000.0001)    Wall clock time:   70.95160627365112
(PID.TID 0000.0001)         No. starts:          15
(PID.TID 0000.0001)          No. stops:          15
(PID.TID 0000.0001)  Seconds in section "PHYS2DYN          [FIZHI_WRAPPER]":
(PID.TID 0000.0001)          User time:  0.6699943542480469
(PID.TID 0000.0001)        System time:  0.0000000000000000E+000
(PID.TID 0000.0001)    Wall clock time:  0.9188871383666992
(PID.TID 0000.0001)         No. starts:          15
(PID.TID 0000.0001)          No. stops:          15
(PID.TID 0000.0001)  Seconds in section "ATOC              [FIZHI_WRAPPER]":
(PID.TID 0000.0001)          User time:  0.2899990081787109
(PID.TID 0000.0001)        System time:  0.0000000000000000E+000
(PID.TID 0000.0001)    Wall clock time:  0.7445917129516602
(PID.TID 0000.0001)         No. starts:          15
(PID.TID 0000.0001)          No. stops:          15
(PID.TID 0000.0001)  Seconds in section "EXCHANGES         [FIZHI_WRAPPER]":
(PID.TID 0000.0001)          User time:  0.4400100708007813
(PID.TID 0000.0001)        System time:  9.9997520446777344E-003
(PID.TID 0000.0001)    Wall clock time:  0.7798390388488770
(PID.TID 0000.0001)         No. starts:          15
(PID.TID 0000.0001)          No. stops:          15
(PID.TID 0000.0001)  Seconds in section "DO_OCEANIC_PHYS     [FORWARD_STEP]":
(PID.TID 0000.0001)          User time:  3.9999008178710938E-002
(PID.TID 0000.0001)        System time:  0.0000000000000000E+000
(PID.TID 0000.0001)    Wall clock time:  4.7138929367065430E-002
(PID.TID 0000.0001)         No. starts:          15
(PID.TID 0000.0001)          No. stops:          15
(PID.TID 0000.0001)  Seconds in section "DYNAMICS            [FORWARD_STEP]":
(PID.TID 0000.0001)          User time:   3.450008392333984
(PID.TID 0000.0001)        System time:  9.9999904632568359E-003
(PID.TID 0000.0001)    Wall clock time:   6.132216215133667
(PID.TID 0000.0001)         No. starts:          15
(PID.TID 0000.0001)          No. stops:          15
(PID.TID 0000.0001)  Seconds in section "UPDATE_R_STAR       [FORWARD_STEP]":
(PID.TID 0000.0001)          User time:  0.2499904632568359
(PID.TID 0000.0001)        System time:  1.0000228881835938E-002
(PID.TID 0000.0001)    Wall clock time:  0.4397113323211670
(PID.TID 0000.0001)         No. starts:          15
(PID.TID 0000.0001)          No. stops:          15
(PID.TID 0000.0001)  Seconds in section "UPDATE_CG2D         [FORWARD_STEP]":
(PID.TID 0000.0001)          User time:  7.0005416870117188E-002
(PID.TID 0000.0001)        System time:  0.0000000000000000E+000
(PID.TID 0000.0001)    Wall clock time:  8.0267667770385742E-002
(PID.TID 0000.0001)         No. starts:          15
(PID.TID 0000.0001)          No. stops:          15
(PID.TID 0000.0001)  Seconds in section "SOLVE_FOR_PRESSURE  [FORWARD_STEP]":
(PID.TID 0000.0001)          User time:  0.2099971771240234
(PID.TID 0000.0001)        System time:  0.0000000000000000E+000
(PID.TID 0000.0001)    Wall clock time:  0.5037267208099365
(PID.TID 0000.0001)         No. starts:          15
(PID.TID 0000.0001)          No. stops:          15
(PID.TID 0000.0001)  Seconds in section "MOM_CORRECTION_STEP [FORWARD_STEP]":
(PID.TID 0000.0001)          User time:   2.310007095336914
(PID.TID 0000.0001)        System time:  0.0000000000000000E+000
(PID.TID 0000.0001)    Wall clock time:   4.137947559356689
(PID.TID 0000.0001)         No. starts:          15
(PID.TID 0000.0001)          No. stops:          15
(PID.TID 0000.0001)  Seconds in section "SHAP_FILT_UV       [MOM_CORR_STEP]":
(PID.TID 0000.0001)          User time:   2.119997024536133
(PID.TID 0000.0001)        System time:  0.0000000000000000E+000
(PID.TID 0000.0001)    Wall clock time:   3.685189485549927
(PID.TID 0000.0001)         No. starts:          15
(PID.TID 0000.0001)          No. stops:          15
(PID.TID 0000.0001)  Seconds in section "UPDATE_ETAH         [FORWARD_STEP]":
(PID.TID 0000.0001)          User time:  0.0000000000000000E+000
(PID.TID 0000.0001)        System time:  0.0000000000000000E+000
(PID.TID 0000.0001)    Wall clock time:  2.0408630371093750E-003
(PID.TID 0000.0001)         No. starts:          15
(PID.TID 0000.0001)          No. stops:          15
(PID.TID 0000.0001)  Seconds in section "CALC_R_STAR         [FORWARD_STEP]":
(PID.TID 0000.0001)          User time:  4.0000915527343750E-002
(PID.TID 0000.0001)        System time:  0.0000000000000000E+000
(PID.TID 0000.0001)    Wall clock time:  4.0123939514160156E-002
(PID.TID 0000.0001)         No. starts:          15
(PID.TID 0000.0001)          No. stops:          15
(PID.TID 0000.0001)  Seconds in section "BLOCKING_EXCHANGES  [FORWARD_STEP]":
(PID.TID 0000.0001)          User time:  0.4599933624267578
(PID.TID 0000.0001)        System time:  0.0000000000000000E+000
(PID.TID 0000.0001)    Wall clock time:  0.6908843517303467
(PID.TID 0000.0001)         No. starts:          30
(PID.TID 0000.0001)          No. stops:          30
(PID.TID 0000.0001)  Seconds in section "THERMODYNAMICS      [FORWARD_STEP]":
(PID.TID 0000.0001)          User time:   1.199996948242188
(PID.TID 0000.0001)        System time:  1.0000228881835938E-002
(PID.TID 0000.0001)    Wall clock time:   1.974473953247070
(PID.TID 0000.0001)         No. starts:          15
(PID.TID 0000.0001)          No. stops:          15
(PID.TID 0000.0001)  Seconds in section "TRC_CORRECTION_STEP [FORWARD_STEP]":
(PID.TID 0000.0001)          User time:   1.060005187988281
(PID.TID 0000.0001)        System time:  0.0000000000000000E+000
(PID.TID 0000.0001)    Wall clock time:   1.978498697280884
(PID.TID 0000.0001)         No. starts:          15
(PID.TID 0000.0001)          No. stops:          15
(PID.TID 0000.0001)  Seconds in section "SHAP_FILT_TS       [TRC_CORR_STEP]":
(PID.TID 0000.0001)          User time:   1.000000000000000
(PID.TID 0000.0001)        System time:  0.0000000000000000E+000
(PID.TID 0000.0001)    Wall clock time:   1.927049398422241
(PID.TID 0000.0001)         No. starts:          15
(PID.TID 0000.0001)          No. stops:          15
(PID.TID 0000.0001)  Seconds in section "FIZHI               [FORWARD_STEP]":
(PID.TID 0000.0001)          User time:   3.060003280639648
(PID.TID 0000.0001)        System time:  0.3700001239776611
(PID.TID 0000.0001)    Wall clock time:   6.288316965103149
(PID.TID 0000.0001)         No. starts:          15
(PID.TID 0000.0001)          No. stops:          15
(PID.TID 0000.0001)  Seconds in section "PHYS2DYN          [STEP_FIZHI_CORR]":
(PID.TID 0000.0001)          User time:  0.6399936676025391
(PID.TID 0000.0001)        System time:  0.0000000000000000E+000
(PID.TID 0000.0001)    Wall clock time:   1.212446212768555
(PID.TID 0000.0001)         No. starts:          15
(PID.TID 0000.0001)          No. stops:          15
(PID.TID 0000.0001)  Seconds in section "ATOC              [STEP_FIZHI_CORR]":
(PID.TID 0000.0001)          User time:  0.3000049591064453
(PID.TID 0000.0001)        System time:  0.0000000000000000E+000
(PID.TID 0000.0001)    Wall clock time:  0.4990148544311523
(PID.TID 0000.0001)         No. starts:          15
(PID.TID 0000.0001)          No. stops:          15
(PID.TID 0000.0001)  Seconds in section "CTOA              [STEP_FIZHI_CORR]":
(PID.TID 0000.0001)          User time:  0.3799972534179688
(PID.TID 0000.0001)        System time:  0.0000000000000000E+000
(PID.TID 0000.0001)    Wall clock time:  0.5779817104339600
(PID.TID 0000.0001)         No. starts:          15
(PID.TID 0000.0001)          No. stops:          15
(PID.TID 0000.0001)  Seconds in section "DYN2PHYS          [STEP_FIZHI_CORR]":
(PID.TID 0000.0001)          User time:   1.290000915527344
(PID.TID 0000.0001)        System time:  0.3600001335144043
(PID.TID 0000.0001)    Wall clock time:   3.210761070251465
(PID.TID 0000.0001)         No. starts:          15
(PID.TID 0000.0001)          No. stops:          15
(PID.TID 0000.0001)  Seconds in section "DO_STATEVARS_TAVE   [FORWARD_STEP]":
(PID.TID 0000.0001)          User time:  0.0000000000000000E+000
(PID.TID 0000.0001)        System time:  0.0000000000000000E+000
(PID.TID 0000.0001)    Wall clock time:  0.1007721424102783
(PID.TID 0000.0001)         No. starts:          15
(PID.TID 0000.0001)          No. stops:          15
(PID.TID 0000.0001)  Seconds in section "MONITOR             [FORWARD_STEP]":
(PID.TID 0000.0001)          User time:  0.9800052642822266
(PID.TID 0000.0001)        System time:  0.0000000000000000E+000
(PID.TID 0000.0001)    Wall clock time:   1.897474288940430
(PID.TID 0000.0001)         No. starts:          15
(PID.TID 0000.0001)          No. stops:          15
(PID.TID 0000.0001)  Seconds in section "DO_THE_MODEL_IO     [FORWARD_STEP]":
(PID.TID 0000.0001)          User time:   2.469997406005859
(PID.TID 0000.0001)        System time:  0.6599998474121094
(PID.TID 0000.0001)    Wall clock time:   7.227794408798218
(PID.TID 0000.0001)         No. starts:          15
(PID.TID 0000.0001)          No. stops:          15
(PID.TID 0000.0001)  Seconds in section "DO_WRITE_PICKUP     [FORWARD_STEP]":
(PID.TID 0000.0001)          User time:  0.0000000000000000E+000
(PID.TID 0000.0001)        System time:  0.0000000000000000E+000
(PID.TID 0000.0001)    Wall clock time:  7.6603889465332031E-004
(PID.TID 0000.0001)         No. starts:          15
(PID.TID 0000.0001)          No. stops:          15
(PID.TID 0000.0001)  Seconds in section "DO_WRITE_PICKUP        [THE_MODEL_MAIN]":
(PID.TID 0000.0001)          User time:  0.7200012207031250
(PID.TID 0000.0001)        System time:  0.3699998855590820
(PID.TID 0000.0001)    Wall clock time:   19.38206315040588
(PID.TID 0000.0001)         No. starts:           1
(PID.TID 0000.0001)          No. stops:           1
(PID.TID 0000.0001) // ======================================================
(PID.TID 0000.0001) // Tile <-> Tile communication statistics
(PID.TID 0000.0001) // ======================================================
(PID.TID 0000.0001) // o Tile number: 000001
(PID.TID 0000.0001) //         No. X exchanges =              0
(PID.TID 0000.0001) //            Max. X spins =              0
(PID.TID 0000.0001) //            Min. X spins =     1000000000
(PID.TID 0000.0001) //          Total. X spins =              0
(PID.TID 0000.0001) //            Avg. X spins =       0.00E+00
(PID.TID 0000.0001) //         No. Y exchanges =              0
(PID.TID 0000.0001) //            Max. Y spins =              0
(PID.TID 0000.0001) //            Min. Y spins =     1000000000
(PID.TID 0000.0001) //          Total. Y spins =              0
(PID.TID 0000.0001) //            Avg. Y spins =       0.00E+00
(PID.TID 0000.0001) // o Tile number: 000002
(PID.TID 0000.0001) //         No. X exchanges =              0
(PID.TID 0000.0001) //            Max. X spins =              0
(PID.TID 0000.0001) //            Min. X spins =     1000000000
(PID.TID 0000.0001) //          Total. X spins =              0
(PID.TID 0000.0001) //            Avg. X spins =       0.00E+00
(PID.TID 0000.0001) //         No. Y exchanges =              0
(PID.TID 0000.0001) //            Max. Y spins =              0
(PID.TID 0000.0001) //            Min. Y spins =     1000000000
(PID.TID 0000.0001) //          Total. Y spins =              0
(PID.TID 0000.0001) //            Avg. Y spins =       0.00E+00
(PID.TID 0000.0001) // o Tile number: 000003
(PID.TID 0000.0001) //         No. X exchanges =              0
(PID.TID 0000.0001) //            Max. X spins =              0
(PID.TID 0000.0001) //            Min. X spins =     1000000000
(PID.TID 0000.0001) //          Total. X spins =              0
(PID.TID 0000.0001) //            Avg. X spins =       0.00E+00
(PID.TID 0000.0001) //         No. Y exchanges =              0
(PID.TID 0000.0001) //            Max. Y spins =              0
(PID.TID 0000.0001) //            Min. Y spins =     1000000000
(PID.TID 0000.0001) //          Total. Y spins =              0
(PID.TID 0000.0001) //            Avg. Y spins =       0.00E+00
(PID.TID 0000.0001) // o Tile number: 000004
(PID.TID 0000.0001) //         No. X exchanges =              0
(PID.TID 0000.0001) //            Max. X spins =              0
(PID.TID 0000.0001) //            Min. X spins =     1000000000
(PID.TID 0000.0001) //          Total. X spins =              0
(PID.TID 0000.0001) //            Avg. X spins =       0.00E+00
(PID.TID 0000.0001) //         No. Y exchanges =              0
(PID.TID 0000.0001) //            Max. Y spins =              0
(PID.TID 0000.0001) //            Min. Y spins =     1000000000
(PID.TID 0000.0001) //          Total. Y spins =              0
(PID.TID 0000.0001) //            Avg. Y spins =       0.00E+00
(PID.TID 0000.0001) // o Tile number: 000005
(PID.TID 0000.0001) //         No. X exchanges =              0
(PID.TID 0000.0001) //            Max. X spins =              0
(PID.TID 0000.0001) //            Min. X spins =     1000000000
(PID.TID 0000.0001) //          Total. X spins =              0
(PID.TID 0000.0001) //            Avg. X spins =       0.00E+00
(PID.TID 0000.0001) //         No. Y exchanges =              0
(PID.TID 0000.0001) //            Max. Y spins =              0
(PID.TID 0000.0001) //            Min. Y spins =     1000000000
(PID.TID 0000.0001) //          Total. Y spins =              0
(PID.TID 0000.0001) //            Avg. Y spins =       0.00E+00
(PID.TID 0000.0001) // o Tile number: 000006
(PID.TID 0000.0001) //         No. X exchanges =              0
(PID.TID 0000.0001) //            Max. X spins =              0
(PID.TID 0000.0001) //            Min. X spins =     1000000000
(PID.TID 0000.0001) //          Total. X spins =              0
(PID.TID 0000.0001) //            Avg. X spins =       0.00E+00
(PID.TID 0000.0001) //         No. Y exchanges =              0
(PID.TID 0000.0001) //            Max. Y spins =              0
(PID.TID 0000.0001) //            Min. Y spins =     1000000000
(PID.TID 0000.0001) //          Total. Y spins =              0
(PID.TID 0000.0001) //            Avg. Y spins =       0.00E+00
(PID.TID 0000.0001) // o Thread number: 000001
(PID.TID 0000.0001) //            No. barriers =          11686
(PID.TID 0000.0001) //      Max. barrier spins =              1
(PID.TID 0000.0001) //      Min. barrier spins =              1
(PID.TID 0000.0001) //     Total barrier spins =          11686
(PID.TID 0000.0001) //      Avg. barrier spins =       1.00E+00
