(PID.TID 0000.0001) 
(PID.TID 0000.0001) // ======================================================
(PID.TID 0000.0001) //                      MITgcm UV
(PID.TID 0000.0001) //                      =========
(PID.TID 0000.0001) // ======================================================
(PID.TID 0000.0001) // execution environment starting up...
(PID.TID 0000.0001) // Run starting Wed Apr  1 14:19:48 1998
(PID.TID 0000.0001) // on melville.lcs.mit.edu
(PID.TID 0000.0001) // account cnh
(PID.TID 0000.0001) // MITgcm UV Release: $Name:  $
(PID.TID 0000.0001) 
(PID.TID 0000.0001) // =======================================================
(PID.TID 0000.0001) // Execution Environment parameter file "eedata"
(PID.TID 0000.0001) // =======================================================
(PID.TID 0000.0001) ># Example "eedata" file
(PID.TID 0000.0001) ># Lines beginning "#" are comments
(PID.TID 0000.0001) ># nTx - No. threads per process in X
(PID.TID 0000.0001) ># nTy - No. threads per process in Y
(PID.TID 0000.0001) > &EEPARMS
(PID.TID 0000.0001) > useCubedSphereExchange=.TRUE.,
(PID.TID 0000.0001) > &
(PID.TID 0000.0001) ># Note: Some systems use & as the
(PID.TID 0000.0001) ># namelist terminator. Other systems
(PID.TID 0000.0001) ># use a / character (as shown here).
(PID.TID 0000.0001) 
(PID.TID 0000.0001) // =======================================================
(PID.TID 0000.0001) // Computational Grid Specification ( see files "SIZE.h" )
(PID.TID 0000.0001) //                                  ( and "eedata"       )
(PID.TID 0000.0001) // =======================================================
(PID.TID 0000.0001)      nPx =    1 ; /* No. processes in X */
(PID.TID 0000.0001)      nPy =    1 ; /* No. processes in Y */
(PID.TID 0000.0001)      nSx =    6 ; /* No. tiles in X per process */
(PID.TID 0000.0001)      nSy =    1 ; /* No. tiles in Y per process */
(PID.TID 0000.0001)      sNx =   32 ; /* Tile size in X */
(PID.TID 0000.0001)      sNy =   32 ; /* Tile size in Y */
(PID.TID 0000.0001)      OLx =    3 ; /* Tile overlap distance in X */
(PID.TID 0000.0001)      OLy =    3 ; /* Tile overlap distance in Y */
(PID.TID 0000.0001)      nTx =    1 ; /* No. threads in X per process */
(PID.TID 0000.0001)      nTy =    1 ; /* No. threads in Y per process */
(PID.TID 0000.0001)       Nr =    1 ; /* No. levels in the vertical   */
(PID.TID 0000.0001)       nX =  192 ; /* Total domain size in X ( = nPx*nSx*sNx ) */
(PID.TID 0000.0001)       nY =   32 ; /* Total domain size in Y ( = nPy*nSy*sNy ) */
(PID.TID 0000.0001)   nTiles =    6 ; /* Total no. tiles per process ( = nSx*nSy ) */
(PID.TID 0000.0001)   nProcs =    1 ; /* Total no. processes ( = nPx*nPy ) */
(PID.TID 0000.0001) nThreads =    1 ; /* Total no. threads per process ( = nTx*nTy ) */
(PID.TID 0000.0001) usingMPI =    F ; /* Flag used to control whether MPI is in use */
(PID.TID 0000.0001)                   /*  note: To execute a program with MPI calls */
(PID.TID 0000.0001)                   /*  it must be launched appropriately e.g     */
(PID.TID 0000.0001)                   /*  "mpirun -np 64 ......"                    */
(PID.TID 0000.0001) 
(PID.TID 0000.0001) // ======================================================
(PID.TID 0000.0001) // Mapping of tiles to threads
(PID.TID 0000.0001) // ======================================================
(PID.TID 0000.0001) // -o- Thread   1, tiles (   1:   6,   1:   1)
(PID.TID 0000.0001) 
(PID.TID 0000.0001) // ======================================================
(PID.TID 0000.0001) // Tile <-> Tile connectvity table
(PID.TID 0000.0001) // ======================================================
(PID.TID 0000.0001) // Tile number: 000001 (process no. = 000001)
(PID.TID 0000.0001) //        WEST: Tile = 000006, Process = 000001, Comm = put
(PID.TID 0000.0001) //                bi = 000006, bj = 000001
(PID.TID 0000.0001) //        EAST: Tile = 000002, Process = 000001, Comm = put
(PID.TID 0000.0001) //                bi = 000002, bj = 000001
(PID.TID 0000.0001) //       SOUTH: Tile = 000001, Process = 000001, Comm = put
(PID.TID 0000.0001) //                bi = 000001, bj = 000001
(PID.TID 0000.0001) //       NORTH: Tile = 000001, Process = 000001, Comm = put
(PID.TID 0000.0001) //                bi = 000001, bj = 000001
(PID.TID 0000.0001) // Tile number: 000002 (process no. = 000001)
(PID.TID 0000.0001) //        WEST: Tile = 000001, Process = 000001, Comm = put
(PID.TID 0000.0001) //                bi = 000001, bj = 000001
(PID.TID 0000.0001) //        EAST: Tile = 000003, Process = 000001, Comm = put
(PID.TID 0000.0001) //                bi = 000003, bj = 000001
(PID.TID 0000.0001) //       SOUTH: Tile = 000002, Process = 000001, Comm = put
(PID.TID 0000.0001) //                bi = 000002, bj = 000001
(PID.TID 0000.0001) //       NORTH: Tile = 000002, Process = 000001, Comm = put
(PID.TID 0000.0001) //                bi = 000002, bj = 000001
(PID.TID 0000.0001) // Tile number: 000003 (process no. = 000001)
(PID.TID 0000.0001) //        WEST: Tile = 000002, Process = 000001, Comm = put
(PID.TID 0000.0001) //                bi = 000002, bj = 000001
(PID.TID 0000.0001) //        EAST: Tile = 000004, Process = 000001, Comm = put
(PID.TID 0000.0001) //                bi = 000004, bj = 000001
(PID.TID 0000.0001) //       SOUTH: Tile = 000003, Process = 000001, Comm = put
(PID.TID 0000.0001) //                bi = 000003, bj = 000001
(PID.TID 0000.0001) //       NORTH: Tile = 000003, Process = 000001, Comm = put
(PID.TID 0000.0001) //                bi = 000003, bj = 000001
(PID.TID 0000.0001) // Tile number: 000004 (process no. = 000001)
(PID.TID 0000.0001) //        WEST: Tile = 000003, Process = 000001, Comm = put
(PID.TID 0000.0001) //                bi = 000003, bj = 000001
(PID.TID 0000.0001) //        EAST: Tile = 000005, Process = 000001, Comm = put
(PID.TID 0000.0001) //                bi = 000005, bj = 000001
(PID.TID 0000.0001) //       SOUTH: Tile = 000004, Process = 000001, Comm = put
(PID.TID 0000.0001) //                bi = 000004, bj = 000001
(PID.TID 0000.0001) //       NORTH: Tile = 000004, Process = 000001, Comm = put
(PID.TID 0000.0001) //                bi = 000004, bj = 000001
(PID.TID 0000.0001) // Tile number: 000005 (process no. = 000001)
(PID.TID 0000.0001) //        WEST: Tile = 000004, Process = 000001, Comm = put
(PID.TID 0000.0001) //                bi = 000004, bj = 000001
(PID.TID 0000.0001) //        EAST: Tile = 000006, Process = 000001, Comm = put
(PID.TID 0000.0001) //                bi = 000006, bj = 000001
(PID.TID 0000.0001) //       SOUTH: Tile = 000005, Process = 000001, Comm = put
(PID.TID 0000.0001) //                bi = 000005, bj = 000001
(PID.TID 0000.0001) //       NORTH: Tile = 000005, Process = 000001, Comm = put
(PID.TID 0000.0001) //                bi = 000005, bj = 000001
(PID.TID 0000.0001) // Tile number: 000006 (process no. = 000001)
(PID.TID 0000.0001) //        WEST: Tile = 000005, Process = 000001, Comm = put
(PID.TID 0000.0001) //                bi = 000005, bj = 000001
(PID.TID 0000.0001) //        EAST: Tile = 000001, Process = 000001, Comm = put
(PID.TID 0000.0001) //                bi = 000001, bj = 000001
(PID.TID 0000.0001) //       SOUTH: Tile = 000006, Process = 000001, Comm = put
(PID.TID 0000.0001) //                bi = 000006, bj = 000001
(PID.TID 0000.0001) //       NORTH: Tile = 000006, Process = 000001, Comm = put
(PID.TID 0000.0001) //                bi = 000006, bj = 000001
(PID.TID 0000.0001) 
(PID.TID 0000.0001) // =======================================================
(PID.TID 0000.0001) // Model parameter file "data"
(PID.TID 0000.0001) // =======================================================
(PID.TID 0000.0001) ># ====================
(PID.TID 0000.0001) ># | Model parameters |
(PID.TID 0000.0001) ># ====================
(PID.TID 0000.0001) >#
(PID.TID 0000.0001) ># Continuous equation parameters
(PID.TID 0000.0001) > &PARM01
(PID.TID 0000.0001) > tRef=0.,
(PID.TID 0000.0001) > sRef=0.,
(PID.TID 0000.0001) > diffKrT=0.,
(PID.TID 0000.0001) > diffKhT=0.,
(PID.TID 0000.0001) > diffK4T=0.,
(PID.TID 0000.0001) > diffKrS=0.,
(PID.TID 0000.0001) > diffKhS=0.,
(PID.TID 0000.0001) > diffK4S=0.,
(PID.TID 0000.0001) > rigidLid=.FALSE.,
(PID.TID 0000.0001) > implicitFreeSurface=.TRUE.,
(PID.TID 0000.0001) > readBinaryPrec=64,
(PID.TID 0000.0001) > writeBinaryPrec=64,
(PID.TID 0000.0001) > momStepping=.FALSE.,
(PID.TID 0000.0001) > tempStepping=.TRUE.,
(PID.TID 0000.0001) > saltStepping=.TRUE.,
(PID.TID 0000.0001) > tempAdvScheme=33,
(PID.TID 0000.0001) > saltAdvScheme=33,
(PID.TID 0000.0001) > &
(PID.TID 0000.0001) >
(PID.TID 0000.0001) ># Elliptic solver parameters
(PID.TID 0000.0001) > &PARM02
(PID.TID 0000.0001) > cg2dMaxIters=600,
(PID.TID 0000.0001) > cg2dTargetResidual=1.E-12,
(PID.TID 0000.0001) > &
(PID.TID 0000.0001) >
(PID.TID 0000.0001) ># Time stepping parameters
(PID.TID 0000.0001) > &PARM03
(PID.TID 0000.0001) > niter0=0,
(PID.TID 0000.0001) > endTime=1036800.,
(PID.TID 0000.0001) > abEps=0.1,
(PID.TID 0000.0001) > deltaT=3600.0,
(PID.TID 0000.0001) > cAdjFreq=0.,
(PID.TID 0000.0001) > pChkptFreq=0.0,
(PID.TID 0000.0001) > chkptFreq=0.0,
(PID.TID 0000.0001) > dumpFreq=86400.0,
(PID.TID 0000.0001) > monitorFreq=21600.,
(PID.TID 0000.0001) > &
(PID.TID 0000.0001) >
(PID.TID 0000.0001) ># Gridding parameters
(PID.TID 0000.0001) > &PARM04
(PID.TID 0000.0001) > usingCartesianGrid=.FALSE.,
(PID.TID 0000.0001) > usingSphericalPolarGrid=.FALSE.,
(PID.TID 0000.0001) > usingCurvilinearGrid=.TRUE.,
(PID.TID 0000.0001) > delR=1.E5,
(PID.TID 0000.0001) > Ro_SeaLevel=1.E5,
(PID.TID 0000.0001) > groundAtK1=.TRUE.,
(PID.TID 0000.0001) > &
(PID.TID 0000.0001) >
(PID.TID 0000.0001) ># Input datasets
(PID.TID 0000.0001) > &PARM05
(PID.TID 0000.0001) >#uVelInitFile='U.init',
(PID.TID 0000.0001) >#vVelInitFile='V.init',
(PID.TID 0000.0001) >#pSurfInitFile='Eta.init',
(PID.TID 0000.0001) > hydrogThetaFile='T.init',
(PID.TID 0000.0001) > hydrogSaltFile='S.init',
(PID.TID 0000.0001) > &
(PID.TID 0000.0001) 
(PID.TID 0000.0001) S/R INI_PARMS ; read PARM01 : OK
(PID.TID 0000.0001) S/R INI_PARMS ; read PARM02 : OK
(PID.TID 0000.0001) S/R INI_PARMS ; read PARM03 : OK
(PID.TID 0000.0001) S/R INI_PARMS ; read PARM04 : OK
(PID.TID 0000.0001) S/R INI_PARMS ; read PARM05 : OK
(PID.TID 0000.0001) %MON XC_max                       =   1.7854351589505E+02
(PID.TID 0000.0001) %MON XC_min                       =  -1.7854351589505E+02
(PID.TID 0000.0001) %MON XC_mean                      =   2.3657002283054E-14
(PID.TID 0000.0001) %MON XC_sd                        =   1.0355545336287E+02
(PID.TID 0000.0001) %MON XG_max                       =   1.8000000000000E+02
(PID.TID 0000.0001) %MON XG_min                       =  -1.7708797161002E+02
(PID.TID 0000.0001) %MON XG_mean                      =   1.8648248643315E+00
(PID.TID 0000.0001) %MON XG_sd                        =   1.0409692275153E+02
(PID.TID 0000.0001) %MON DXC_max                      =   3.2375186364168E+05
(PID.TID 0000.0001) %MON DXC_min                      =   1.1166471326979E+05
(PID.TID 0000.0001) %MON DXC_mean                     =   2.8606279210230E+05
(PID.TID 0000.0001) %MON DXC_sd                       =   3.4029260293545E+04
(PID.TID 0000.0001) %MON DXF_max                      =   3.2369948031419E+05
(PID.TID 0000.0001) %MON DXF_min                      =   1.2081644974275E+05
(PID.TID 0000.0001) %MON DXF_mean                     =   2.8606279210229E+05
(PID.TID 0000.0001) %MON DXF_sd                       =   3.4027324876559E+04
(PID.TID 0000.0001) %MON DXG_max                      =   3.2375195872773E+05
(PID.TID 0000.0001) %MON DXG_min                      =   1.0098378008764E+05
(PID.TID 0000.0001) %MON DXG_mean                     =   2.8604515874455E+05
(PID.TID 0000.0001) %MON DXG_sd                       =   3.4124649525440E+04
(PID.TID 0000.0001) %MON DXV_max                      =   3.2380418162744E+05
(PID.TID 0000.0001) %MON DXV_min                      =   8.0152299824045E+04
(PID.TID 0000.0001) %MON DXV_mean                     =   2.8604515874455E+05
(PID.TID 0000.0001) %MON DXV_sd                       =   3.4134690398933E+04
(PID.TID 0000.0001) %MON YC_max                       =   8.7940663871962E+01
(PID.TID 0000.0001) %MON YC_min                       =  -8.7940663871962E+01
(PID.TID 0000.0001) %MON YC_mean                      =   3.7701323544563E-16
(PID.TID 0000.0001) %MON YC_sd                        =   3.8676242969072E+01
(PID.TID 0000.0001) %MON YG_max                       =   9.0000000000000E+01
(PID.TID 0000.0001) %MON YG_min                       =  -9.0000000000000E+01
(PID.TID 0000.0001) %MON YG_mean                      =  -1.2011668255785E-15
(PID.TID 0000.0001) %MON YG_sd                        =   3.9086186579984E+01
(PID.TID 0000.0001) %MON DYC_max                      =   3.2375186364168E+05
(PID.TID 0000.0001) %MON DYC_min                      =   1.1166471326979E+05
(PID.TID 0000.0001) %MON DYC_mean                     =   2.8606279210230E+05
(PID.TID 0000.0001) %MON DYC_sd                       =   3.4029260293545E+04
(PID.TID 0000.0001) %MON DYF_max                      =   3.2369948031419E+05
(PID.TID 0000.0001) %MON DYF_min                      =   1.2081644974275E+05
(PID.TID 0000.0001) %MON DYF_mean                     =   2.8606279210229E+05
(PID.TID 0000.0001) %MON DYF_sd                       =   3.4027324876559E+04
(PID.TID 0000.0001) %MON DYG_max                      =   3.2375195872773E+05
(PID.TID 0000.0001) %MON DYG_min                      =   1.0098378008764E+05
(PID.TID 0000.0001) %MON DYG_mean                     =   2.8604515874455E+05
(PID.TID 0000.0001) %MON DYG_sd                       =   3.4124649525440E+04
(PID.TID 0000.0001) %MON DYU_max                      =   3.2380418162744E+05
(PID.TID 0000.0001) %MON DYU_min                      =   8.0152299824045E+04
(PID.TID 0000.0001) %MON DYU_mean                     =   2.8604515874455E+05
(PID.TID 0000.0001) %MON DYU_sd                       =   3.4134690398933E+04
(PID.TID 0000.0001) %MON RA_max                       =   1.0477149086258E+11
(PID.TID 0000.0001) %MON RA_min                       =   1.4831937093978E+10
(PID.TID 0000.0001) %MON RA_mean                      =   8.2992246709111E+10
(PID.TID 0000.0001) %MON RA_sd                        =   1.7474749259308E+10
(PID.TID 0000.0001) %MON RAW_max                      =   1.0480542568956E+11
(PID.TID 0000.0001) %MON RAW_min                      =   1.2415180612768E+10
(PID.TID 0000.0001) %MON RAW_mean                     =   8.2992246709111E+10
(PID.TID 0000.0001) %MON RAW_sd                       =   1.7475025623262E+10
(PID.TID 0000.0001) %MON RAS_max                      =   1.0480542568956E+11
(PID.TID 0000.0001) %MON RAS_min                      =   1.2415180612768E+10
(PID.TID 0000.0001) %MON RAS_mean                     =   8.2992246709111E+10
(PID.TID 0000.0001) %MON RAS_sd                       =   1.7475025623262E+10
(PID.TID 0000.0001) %MON RAZ_max                      =   1.0483926219563E+11
(PID.TID 0000.0001) %MON RAZ_min                      =   9.2429460237150E+09
(PID.TID 0000.0001) %MON RAZ_mean                     =   8.2992246709111E+10
(PID.TID 0000.0001) %MON RAZ_sd                       =   1.7475350638330E+10
(PID.TID 0000.0001) // =======================================================
(PID.TID 0000.0001) // Field Model R_low (ini_masks_etc) at iteration          1
(PID.TID 0000.0001) // CMIN =          1.000000000000000E+32
(PID.TID 0000.0001) // CMAX =         -1.000000000000000E+32
(PID.TID 0000.0001) // CINT =          0.000000000000000E+00
(PID.TID 0000.0001) // SYMBOLS (CMIN->CMAX): -abcdefghijklmnopqrstuvwxyz+
(PID.TID 0000.0001) //                  0.0: .
(PID.TID 0000.0001) // RANGE I (Lo:Hi:Step):(  -2: 195:   1)
(PID.TID 0000.0001) // RANGE J (Lo:Hi:Step):(  35:  -2:  -1)
(PID.TID 0000.0001) // RANGE K (Lo:Hi:Step):(   1:   1:   1)
(PID.TID 0000.0001) // =======================================================
(PID.TID 0000.0001) K =   1
(PID.TID 0000.0001) //                I=7       I=17      I=27      I=31      I=41      I=51      I=61      I=65      I=75      I=85      I=95      I=99      I=109     I=119     I=129     I=133     I=143     I=153     I=163     I=167     I=177     I=187
(PID.TID 0000.0001) // |--J--|**0123456|890123456|890123456|890123450|234567890|234567890|234567890|234567234|678901234|678901234|678901234|678945678|012345678|012345678|012345678|016789012|456789012|456789012|456789012|890123456|890123456|890123456|89012345
(PID.TID 0000.0001) //     35 ....................................................................................................................................................................................................................................
(PID.TID 0000.0001) //     34 ....................................................................................................................................................................................................................................
(PID.TID 0000.0001) //     33 ....................................................................................................................................................................................................................................
(PID.TID 0000.0001) //     32 ....................................................................................................................................................................................................................................
(PID.TID 0000.0001) //     31 ....................................................................................................................................................................................................................................
(PID.TID 0000.0001) //     30 ....................................................................................................................................................................................................................................
(PID.TID 0000.0001) //     29 ....................................................................................................................................................................................................................................
(PID.TID 0000.0001) //     28 ....................................................................................................................................................................................................................................
(PID.TID 0000.0001) //     27 ....................................................................................................................................................................................................................................
(PID.TID 0000.0001) //     26 ....................................................................................................................................................................................................................................
(PID.TID 0000.0001) //     25 ....................................................................................................................................................................................................................................
(PID.TID 0000.0001) //     24 ....................................................................................................................................................................................................................................
(PID.TID 0000.0001) //     23 ....................................................................................................................................................................................................................................
(PID.TID 0000.0001) //     22 ....................................................................................................................................................................................................................................
(PID.TID 0000.0001) //     21 ....................................................................................................................................................................................................................................
(PID.TID 0000.0001) //     20 ....................................................................................................................................................................................................................................
(PID.TID 0000.0001) //     19 ....................................................................................................................................................................................................................................
(PID.TID 0000.0001) //     18 ....................................................................................................................................................................................................................................
(PID.TID 0000.0001) //     17 ....................................................................................................................................................................................................................................
(PID.TID 0000.0001) //     16 ....................................................................................................................................................................................................................................
(PID.TID 0000.0001) //     15 ....................................................................................................................................................................................................................................
(PID.TID 0000.0001) //     14 ....................................................................................................................................................................................................................................
(PID.TID 0000.0001) //     13 ....................................................................................................................................................................................................................................
(PID.TID 0000.0001) //     12 ....................................................................................................................................................................................................................................
(PID.TID 0000.0001) //     11 ....................................................................................................................................................................................................................................
(PID.TID 0000.0001) //     10 ....................................................................................................................................................................................................................................
(PID.TID 0000.0001) //      9 ....................................................................................................................................................................................................................................
(PID.TID 0000.0001) //      8 ....................................................................................................................................................................................................................................
(PID.TID 0000.0001) //      7 ....................................................................................................................................................................................................................................
(PID.TID 0000.0001) //      6 ....................................................................................................................................................................................................................................
(PID.TID 0000.0001) //      5 ....................................................................................................................................................................................................................................
(PID.TID 0000.0001) //      4 ....................................................................................................................................................................................................................................
(PID.TID 0000.0001) //      3 ....................................................................................................................................................................................................................................
(PID.TID 0000.0001) //      2 ....................................................................................................................................................................................................................................
(PID.TID 0000.0001) //      1 ....................................................................................................................................................................................................................................
(PID.TID 0000.0001) //      0 ....................................................................................................................................................................................................................................
(PID.TID 0000.0001) //     -1 ....................................................................................................................................................................................................................................
(PID.TID 0000.0001) //     -2 ....................................................................................................................................................................................................................................
(PID.TID 0000.0001) // =======================================================
(PID.TID 0000.0001) // END OF FIELD                                          =
(PID.TID 0000.0001) // =======================================================
(PID.TID 0000.0001) 
(PID.TID 0000.0001) // =======================================================
(PID.TID 0000.0001) // Field Model Ro_surf (ini_masks_etc) at iteration          1
(PID.TID 0000.0001) // CMIN =          1.000000000000000E+05
(PID.TID 0000.0001) // CMAX =          1.000000000000000E+05
(PID.TID 0000.0001) // CINT =          0.000000000000000E+00
(PID.TID 0000.0001) // SYMBOLS (CMIN->CMAX): -abcdefghijklmnopqrstuvwxyz+
(PID.TID 0000.0001) //                  0.0: .
(PID.TID 0000.0001) // RANGE I (Lo:Hi:Step):(  -2: 195:   1)
(PID.TID 0000.0001) // RANGE J (Lo:Hi:Step):(  35:  -2:  -1)
(PID.TID 0000.0001) // RANGE K (Lo:Hi:Step):(   1:   1:   1)
(PID.TID 0000.0001) // =======================================================
(PID.TID 0000.0001) K =   1
(PID.TID 0000.0001) //                I=7       I=17      I=27      I=31      I=41      I=51      I=61      I=65      I=75      I=85      I=95      I=99      I=109     I=119     I=129     I=133     I=143     I=153     I=163     I=167     I=177     I=187
(PID.TID 0000.0001) // |--J--|**0123456|890123456|890123456|890123450|234567890|234567890|234567890|234567234|678901234|678901234|678901234|678945678|012345678|012345678|012345678|016789012|456789012|456789012|456789012|890123456|890123456|890123456|89012345
(PID.TID 0000.0001) //     35 ...--------------------------------......--------------------------------......--------------------------------......--------------------------------......--------------------------------......--------------------------------...
(PID.TID 0000.0001) //     34 ...--------------------------------......--------------------------------......--------------------------------......--------------------------------......--------------------------------......--------------------------------...
(PID.TID 0000.0001) //     33 ...--------------------------------......--------------------------------......--------------------------------......--------------------------------......--------------------------------......--------------------------------...
(PID.TID 0000.0001) //     32 ------------------------------------------------------------------------------------------------------------------------------------------------------------------------------------------------------------------------------------
(PID.TID 0000.0001) //     31 ------------------------------------------------------------------------------------------------------------------------------------------------------------------------------------------------------------------------------------
(PID.TID 0000.0001) //     30 ------------------------------------------------------------------------------------------------------------------------------------------------------------------------------------------------------------------------------------
(PID.TID 0000.0001) //     29 ------------------------------------------------------------------------------------------------------------------------------------------------------------------------------------------------------------------------------------
(PID.TID 0000.0001) //     28 ------------------------------------------------------------------------------------------------------------------------------------------------------------------------------------------------------------------------------------
(PID.TID 0000.0001) //     27 ------------------------------------------------------------------------------------------------------------------------------------------------------------------------------------------------------------------------------------
(PID.TID 0000.0001) //     26 ------------------------------------------------------------------------------------------------------------------------------------------------------------------------------------------------------------------------------------
(PID.TID 0000.0001) //     25 ------------------------------------------------------------------------------------------------------------------------------------------------------------------------------------------------------------------------------------
(PID.TID 0000.0001) //     24 ------------------------------------------------------------------------------------------------------------------------------------------------------------------------------------------------------------------------------------
(PID.TID 0000.0001) //     23 ------------------------------------------------------------------------------------------------------------------------------------------------------------------------------------------------------------------------------------
(PID.TID 0000.0001) //     22 ------------------------------------------------------------------------------------------------------------------------------------------------------------------------------------------------------------------------------------
(PID.TID 0000.0001) //     21 ------------------------------------------------------------------------------------------------------------------------------------------------------------------------------------------------------------------------------------
(PID.TID 0000.0001) //     20 ------------------------------------------------------------------------------------------------------------------------------------------------------------------------------------------------------------------------------------
(PID.TID 0000.0001) //     19 ------------------------------------------------------------------------------------------------------------------------------------------------------------------------------------------------------------------------------------
(PID.TID 0000.0001) //     18 ------------------------------------------------------------------------------------------------------------------------------------------------------------------------------------------------------------------------------------
(PID.TID 0000.0001) //     17 ------------------------------------------------------------------------------------------------------------------------------------------------------------------------------------------------------------------------------------
(PID.TID 0000.0001) //     16 ------------------------------------------------------------------------------------------------------------------------------------------------------------------------------------------------------------------------------------
(PID.TID 0000.0001) //     15 ------------------------------------------------------------------------------------------------------------------------------------------------------------------------------------------------------------------------------------
(PID.TID 0000.0001) //     14 ------------------------------------------------------------------------------------------------------------------------------------------------------------------------------------------------------------------------------------
(PID.TID 0000.0001) //     13 ------------------------------------------------------------------------------------------------------------------------------------------------------------------------------------------------------------------------------------
(PID.TID 0000.0001) //     12 ------------------------------------------------------------------------------------------------------------------------------------------------------------------------------------------------------------------------------------
(PID.TID 0000.0001) //     11 ------------------------------------------------------------------------------------------------------------------------------------------------------------------------------------------------------------------------------------
(PID.TID 0000.0001) //     10 ------------------------------------------------------------------------------------------------------------------------------------------------------------------------------------------------------------------------------------
(PID.TID 0000.0001) //      9 ------------------------------------------------------------------------------------------------------------------------------------------------------------------------------------------------------------------------------------
(PID.TID 0000.0001) //      8 ------------------------------------------------------------------------------------------------------------------------------------------------------------------------------------------------------------------------------------
(PID.TID 0000.0001) //      7 ------------------------------------------------------------------------------------------------------------------------------------------------------------------------------------------------------------------------------------
(PID.TID 0000.0001) //      6 ------------------------------------------------------------------------------------------------------------------------------------------------------------------------------------------------------------------------------------
(PID.TID 0000.0001) //      5 ------------------------------------------------------------------------------------------------------------------------------------------------------------------------------------------------------------------------------------
(PID.TID 0000.0001) //      4 ------------------------------------------------------------------------------------------------------------------------------------------------------------------------------------------------------------------------------------
(PID.TID 0000.0001) //      3 ------------------------------------------------------------------------------------------------------------------------------------------------------------------------------------------------------------------------------------
(PID.TID 0000.0001) //      2 ------------------------------------------------------------------------------------------------------------------------------------------------------------------------------------------------------------------------------------
(PID.TID 0000.0001) //      1 ------------------------------------------------------------------------------------------------------------------------------------------------------------------------------------------------------------------------------------
(PID.TID 0000.0001) //      0 ...--------------------------------......--------------------------------......--------------------------------......--------------------------------......--------------------------------......--------------------------------...
(PID.TID 0000.0001) //     -1 ...--------------------------------......--------------------------------......--------------------------------......--------------------------------......--------------------------------......--------------------------------...
(PID.TID 0000.0001) //     -2 ...--------------------------------......--------------------------------......--------------------------------......--------------------------------......--------------------------------......--------------------------------...
(PID.TID 0000.0001) // =======================================================
(PID.TID 0000.0001) // END OF FIELD                                          =
(PID.TID 0000.0001) // =======================================================
(PID.TID 0000.0001) 
(PID.TID 0000.0001) // =======================================================
(PID.TID 0000.0001) // Field hFacC at iteration          1
(PID.TID 0000.0001) // CMIN =          1.000000000000000E+00
(PID.TID 0000.0001) // CMAX =          1.000000000000000E+00
(PID.TID 0000.0001) // CINT =          0.000000000000000E+00
(PID.TID 0000.0001) // SYMBOLS (CMIN->CMAX): -abcdefghijklmnopqrstuvwxyz+
(PID.TID 0000.0001) //                  0.0: .
(PID.TID 0000.0001) // RANGE I (Lo:Hi:Step):(  -2: 195:   1)
(PID.TID 0000.0001) // RANGE J (Lo:Hi:Step):(  35:  -2:  -1)
(PID.TID 0000.0001) // RANGE K (Lo:Hi:Step):(   1:   1:   1)
(PID.TID 0000.0001) // =======================================================
(PID.TID 0000.0001) K =   1
(PID.TID 0000.0001) //                I=7       I=17      I=27      I=31      I=41      I=51      I=61      I=65      I=75      I=85      I=95      I=99      I=109     I=119     I=129     I=133     I=143     I=153     I=163     I=167     I=177     I=187
(PID.TID 0000.0001) // |--J--|**0123456|890123456|890123456|890123450|234567890|234567890|234567890|234567234|678901234|678901234|678901234|678945678|012345678|012345678|012345678|016789012|456789012|456789012|456789012|890123456|890123456|890123456|89012345
(PID.TID 0000.0001) //     35 ...--------------------------------......--------------------------------......--------------------------------......--------------------------------......--------------------------------......--------------------------------...
(PID.TID 0000.0001) //     34 ...--------------------------------......--------------------------------......--------------------------------......--------------------------------......--------------------------------......--------------------------------...
(PID.TID 0000.0001) //     33 ...--------------------------------......--------------------------------......--------------------------------......--------------------------------......--------------------------------......--------------------------------...
(PID.TID 0000.0001) //     32 ------------------------------------------------------------------------------------------------------------------------------------------------------------------------------------------------------------------------------------
(PID.TID 0000.0001) //     31 ------------------------------------------------------------------------------------------------------------------------------------------------------------------------------------------------------------------------------------
(PID.TID 0000.0001) //     30 ------------------------------------------------------------------------------------------------------------------------------------------------------------------------------------------------------------------------------------
(PID.TID 0000.0001) //     29 ------------------------------------------------------------------------------------------------------------------------------------------------------------------------------------------------------------------------------------
(PID.TID 0000.0001) //     28 ------------------------------------------------------------------------------------------------------------------------------------------------------------------------------------------------------------------------------------
(PID.TID 0000.0001) //     27 ------------------------------------------------------------------------------------------------------------------------------------------------------------------------------------------------------------------------------------
(PID.TID 0000.0001) //     26 ------------------------------------------------------------------------------------------------------------------------------------------------------------------------------------------------------------------------------------
(PID.TID 0000.0001) //     25 ------------------------------------------------------------------------------------------------------------------------------------------------------------------------------------------------------------------------------------
(PID.TID 0000.0001) //     24 ------------------------------------------------------------------------------------------------------------------------------------------------------------------------------------------------------------------------------------
(PID.TID 0000.0001) //     23 ------------------------------------------------------------------------------------------------------------------------------------------------------------------------------------------------------------------------------------
(PID.TID 0000.0001) //     22 ------------------------------------------------------------------------------------------------------------------------------------------------------------------------------------------------------------------------------------
(PID.TID 0000.0001) //     21 ------------------------------------------------------------------------------------------------------------------------------------------------------------------------------------------------------------------------------------
(PID.TID 0000.0001) //     20 ------------------------------------------------------------------------------------------------------------------------------------------------------------------------------------------------------------------------------------
(PID.TID 0000.0001) //     19 ------------------------------------------------------------------------------------------------------------------------------------------------------------------------------------------------------------------------------------
(PID.TID 0000.0001) //     18 ------------------------------------------------------------------------------------------------------------------------------------------------------------------------------------------------------------------------------------
(PID.TID 0000.0001) //     17 ------------------------------------------------------------------------------------------------------------------------------------------------------------------------------------------------------------------------------------
(PID.TID 0000.0001) //     16 ------------------------------------------------------------------------------------------------------------------------------------------------------------------------------------------------------------------------------------
(PID.TID 0000.0001) //     15 ------------------------------------------------------------------------------------------------------------------------------------------------------------------------------------------------------------------------------------
(PID.TID 0000.0001) //     14 ------------------------------------------------------------------------------------------------------------------------------------------------------------------------------------------------------------------------------------
(PID.TID 0000.0001) //     13 ------------------------------------------------------------------------------------------------------------------------------------------------------------------------------------------------------------------------------------
(PID.TID 0000.0001) //     12 ------------------------------------------------------------------------------------------------------------------------------------------------------------------------------------------------------------------------------------
(PID.TID 0000.0001) //     11 ------------------------------------------------------------------------------------------------------------------------------------------------------------------------------------------------------------------------------------
(PID.TID 0000.0001) //     10 ------------------------------------------------------------------------------------------------------------------------------------------------------------------------------------------------------------------------------------
(PID.TID 0000.0001) //      9 ------------------------------------------------------------------------------------------------------------------------------------------------------------------------------------------------------------------------------------
(PID.TID 0000.0001) //      8 ------------------------------------------------------------------------------------------------------------------------------------------------------------------------------------------------------------------------------------
(PID.TID 0000.0001) //      7 ------------------------------------------------------------------------------------------------------------------------------------------------------------------------------------------------------------------------------------
(PID.TID 0000.0001) //      6 ------------------------------------------------------------------------------------------------------------------------------------------------------------------------------------------------------------------------------------
(PID.TID 0000.0001) //      5 ------------------------------------------------------------------------------------------------------------------------------------------------------------------------------------------------------------------------------------
(PID.TID 0000.0001) //      4 ------------------------------------------------------------------------------------------------------------------------------------------------------------------------------------------------------------------------------------
(PID.TID 0000.0001) //      3 ------------------------------------------------------------------------------------------------------------------------------------------------------------------------------------------------------------------------------------
(PID.TID 0000.0001) //      2 ------------------------------------------------------------------------------------------------------------------------------------------------------------------------------------------------------------------------------------
(PID.TID 0000.0001) //      1 ------------------------------------------------------------------------------------------------------------------------------------------------------------------------------------------------------------------------------------
(PID.TID 0000.0001) //      0 ...--------------------------------......--------------------------------......--------------------------------......--------------------------------......--------------------------------......--------------------------------...
(PID.TID 0000.0001) //     -1 ...--------------------------------......--------------------------------......--------------------------------......--------------------------------......--------------------------------......--------------------------------...
(PID.TID 0000.0001) //     -2 ...--------------------------------......--------------------------------......--------------------------------......--------------------------------......--------------------------------......--------------------------------...
(PID.TID 0000.0001) // =======================================================
(PID.TID 0000.0001) // END OF FIELD                                          =
(PID.TID 0000.0001) // =======================================================
(PID.TID 0000.0001) 
(PID.TID 0000.0001) // =======================================================
(PID.TID 0000.0001) // Field hFacW at iteration          1
(PID.TID 0000.0001) // CMIN =          1.000000000000000E+00
(PID.TID 0000.0001) // CMAX =          1.000000000000000E+00
(PID.TID 0000.0001) // CINT =          0.000000000000000E+00
(PID.TID 0000.0001) // SYMBOLS (CMIN->CMAX): -abcdefghijklmnopqrstuvwxyz+
(PID.TID 0000.0001) //                  0.0: .
(PID.TID 0000.0001) // RANGE I (Lo:Hi:Step):(  -2: 195:   1)
(PID.TID 0000.0001) // RANGE J (Lo:Hi:Step):(  35:  -2:  -1)
(PID.TID 0000.0001) // RANGE K (Lo:Hi:Step):(   1:   1:   1)
(PID.TID 0000.0001) // =======================================================
(PID.TID 0000.0001) K =   1
(PID.TID 0000.0001) //                I=7       I=17      I=27      I=31      I=41      I=51      I=61      I=65      I=75      I=85      I=95      I=99      I=109     I=119     I=129     I=133     I=143     I=153     I=163     I=167     I=177     I=187
(PID.TID 0000.0001) // |--J--|**0123456|890123456|890123456|890123450|234567890|234567890|234567890|234567234|678901234|678901234|678901234|678945678|012345678|012345678|012345678|016789012|456789012|456789012|456789012|890123456|890123456|890123456|89012345
(PID.TID 0000.0001) //     35 ...---------------------------------.....---------------------------------.....---------------------------------.....---------------------------------.....---------------------------------.....---------------------------------..
(PID.TID 0000.0001) //     34 ...---------------------------------.....---------------------------------.....---------------------------------.....---------------------------------.....---------------------------------.....---------------------------------..
(PID.TID 0000.0001) //     33 ...---------------------------------.....---------------------------------.....---------------------------------.....---------------------------------.....---------------------------------.....---------------------------------..
(PID.TID 0000.0001) //     32 ------------------------------------------------------------------------------------------------------------------------------------------------------------------------------------------------------------------------------------
(PID.TID 0000.0001) //     31 ------------------------------------------------------------------------------------------------------------------------------------------------------------------------------------------------------------------------------------
(PID.TID 0000.0001) //     30 ------------------------------------------------------------------------------------------------------------------------------------------------------------------------------------------------------------------------------------
(PID.TID 0000.0001) //     29 ------------------------------------------------------------------------------------------------------------------------------------------------------------------------------------------------------------------------------------
(PID.TID 0000.0001) //     28 ------------------------------------------------------------------------------------------------------------------------------------------------------------------------------------------------------------------------------------
(PID.TID 0000.0001) //     27 ------------------------------------------------------------------------------------------------------------------------------------------------------------------------------------------------------------------------------------
(PID.TID 0000.0001) //     26 ------------------------------------------------------------------------------------------------------------------------------------------------------------------------------------------------------------------------------------
(PID.TID 0000.0001) //     25 ------------------------------------------------------------------------------------------------------------------------------------------------------------------------------------------------------------------------------------
(PID.TID 0000.0001) //     24 ------------------------------------------------------------------------------------------------------------------------------------------------------------------------------------------------------------------------------------
(PID.TID 0000.0001) //     23 ------------------------------------------------------------------------------------------------------------------------------------------------------------------------------------------------------------------------------------
(PID.TID 0000.0001) //     22 ------------------------------------------------------------------------------------------------------------------------------------------------------------------------------------------------------------------------------------
(PID.TID 0000.0001) //     21 ------------------------------------------------------------------------------------------------------------------------------------------------------------------------------------------------------------------------------------
(PID.TID 0000.0001) //     20 ------------------------------------------------------------------------------------------------------------------------------------------------------------------------------------------------------------------------------------
(PID.TID 0000.0001) //     19 ------------------------------------------------------------------------------------------------------------------------------------------------------------------------------------------------------------------------------------
(PID.TID 0000.0001) //     18 ------------------------------------------------------------------------------------------------------------------------------------------------------------------------------------------------------------------------------------
(PID.TID 0000.0001) //     17 ------------------------------------------------------------------------------------------------------------------------------------------------------------------------------------------------------------------------------------
(PID.TID 0000.0001) //     16 ------------------------------------------------------------------------------------------------------------------------------------------------------------------------------------------------------------------------------------
(PID.TID 0000.0001) //     15 ------------------------------------------------------------------------------------------------------------------------------------------------------------------------------------------------------------------------------------
(PID.TID 0000.0001) //     14 ------------------------------------------------------------------------------------------------------------------------------------------------------------------------------------------------------------------------------------
(PID.TID 0000.0001) //     13 ------------------------------------------------------------------------------------------------------------------------------------------------------------------------------------------------------------------------------------
(PID.TID 0000.0001) //     12 ------------------------------------------------------------------------------------------------------------------------------------------------------------------------------------------------------------------------------------
(PID.TID 0000.0001) //     11 ------------------------------------------------------------------------------------------------------------------------------------------------------------------------------------------------------------------------------------
(PID.TID 0000.0001) //     10 ------------------------------------------------------------------------------------------------------------------------------------------------------------------------------------------------------------------------------------
(PID.TID 0000.0001) //      9 ------------------------------------------------------------------------------------------------------------------------------------------------------------------------------------------------------------------------------------
(PID.TID 0000.0001) //      8 ------------------------------------------------------------------------------------------------------------------------------------------------------------------------------------------------------------------------------------
(PID.TID 0000.0001) //      7 ------------------------------------------------------------------------------------------------------------------------------------------------------------------------------------------------------------------------------------
(PID.TID 0000.0001) //      6 ------------------------------------------------------------------------------------------------------------------------------------------------------------------------------------------------------------------------------------
(PID.TID 0000.0001) //      5 ------------------------------------------------------------------------------------------------------------------------------------------------------------------------------------------------------------------------------------
(PID.TID 0000.0001) //      4 ------------------------------------------------------------------------------------------------------------------------------------------------------------------------------------------------------------------------------------
(PID.TID 0000.0001) //      3 ------------------------------------------------------------------------------------------------------------------------------------------------------------------------------------------------------------------------------------
(PID.TID 0000.0001) //      2 ------------------------------------------------------------------------------------------------------------------------------------------------------------------------------------------------------------------------------------
(PID.TID 0000.0001) //      1 ------------------------------------------------------------------------------------------------------------------------------------------------------------------------------------------------------------------------------------
(PID.TID 0000.0001) //      0 ...---------------------------------.....---------------------------------.....---------------------------------.....---------------------------------.....---------------------------------.....---------------------------------..
(PID.TID 0000.0001) //     -1 ...---------------------------------.....---------------------------------.....---------------------------------.....---------------------------------.....---------------------------------.....---------------------------------..
(PID.TID 0000.0001) //     -2 ...---------------------------------.....---------------------------------.....---------------------------------.....---------------------------------.....---------------------------------.....---------------------------------..
(PID.TID 0000.0001) // =======================================================
(PID.TID 0000.0001) // END OF FIELD                                          =
(PID.TID 0000.0001) // =======================================================
(PID.TID 0000.0001) 
(PID.TID 0000.0001) // =======================================================
(PID.TID 0000.0001) // Field hFacS at iteration          1
(PID.TID 0000.0001) // CMIN =          1.000000000000000E+00
(PID.TID 0000.0001) // CMAX =          1.000000000000000E+00
(PID.TID 0000.0001) // CINT =          0.000000000000000E+00
(PID.TID 0000.0001) // SYMBOLS (CMIN->CMAX): -abcdefghijklmnopqrstuvwxyz+
(PID.TID 0000.0001) //                  0.0: .
(PID.TID 0000.0001) // RANGE I (Lo:Hi:Step):(  -2: 195:   1)
(PID.TID 0000.0001) // RANGE J (Lo:Hi:Step):(  35:  -2:  -1)
(PID.TID 0000.0001) // RANGE K (Lo:Hi:Step):(   1:   1:   1)
(PID.TID 0000.0001) // =======================================================
(PID.TID 0000.0001) K =   1
(PID.TID 0000.0001) //                I=7       I=17      I=27      I=31      I=41      I=51      I=61      I=65      I=75      I=85      I=95      I=99      I=109     I=119     I=129     I=133     I=143     I=153     I=163     I=167     I=177     I=187
(PID.TID 0000.0001) // |--J--|**0123456|890123456|890123456|890123450|234567890|234567890|234567890|234567234|678901234|678901234|678901234|678945678|012345678|012345678|012345678|016789012|456789012|456789012|456789012|890123456|890123456|890123456|89012345
(PID.TID 0000.0001) //     35 ...--------------------------------......--------------------------------......--------------------------------......--------------------------------......--------------------------------......--------------------------------...
(PID.TID 0000.0001) //     34 ...--------------------------------......--------------------------------......--------------------------------......--------------------------------......--------------------------------......--------------------------------...
(PID.TID 0000.0001) //     33 ------------------------------------------------------------------------------------------------------------------------------------------------------------------------------------------------------------------------------------
(PID.TID 0000.0001) //     32 ------------------------------------------------------------------------------------------------------------------------------------------------------------------------------------------------------------------------------------
(PID.TID 0000.0001) //     31 ------------------------------------------------------------------------------------------------------------------------------------------------------------------------------------------------------------------------------------
(PID.TID 0000.0001) //     30 ------------------------------------------------------------------------------------------------------------------------------------------------------------------------------------------------------------------------------------
(PID.TID 0000.0001) //     29 ------------------------------------------------------------------------------------------------------------------------------------------------------------------------------------------------------------------------------------
(PID.TID 0000.0001) //     28 ------------------------------------------------------------------------------------------------------------------------------------------------------------------------------------------------------------------------------------
(PID.TID 0000.0001) //     27 ------------------------------------------------------------------------------------------------------------------------------------------------------------------------------------------------------------------------------------
(PID.TID 0000.0001) //     26 ------------------------------------------------------------------------------------------------------------------------------------------------------------------------------------------------------------------------------------
(PID.TID 0000.0001) //     25 ------------------------------------------------------------------------------------------------------------------------------------------------------------------------------------------------------------------------------------
(PID.TID 0000.0001) //     24 ------------------------------------------------------------------------------------------------------------------------------------------------------------------------------------------------------------------------------------
(PID.TID 0000.0001) //     23 ------------------------------------------------------------------------------------------------------------------------------------------------------------------------------------------------------------------------------------
(PID.TID 0000.0001) //     22 ------------------------------------------------------------------------------------------------------------------------------------------------------------------------------------------------------------------------------------
(PID.TID 0000.0001) //     21 ------------------------------------------------------------------------------------------------------------------------------------------------------------------------------------------------------------------------------------
(PID.TID 0000.0001) //     20 ------------------------------------------------------------------------------------------------------------------------------------------------------------------------------------------------------------------------------------
(PID.TID 0000.0001) //     19 ------------------------------------------------------------------------------------------------------------------------------------------------------------------------------------------------------------------------------------
(PID.TID 0000.0001) //     18 ------------------------------------------------------------------------------------------------------------------------------------------------------------------------------------------------------------------------------------
(PID.TID 0000.0001) //     17 ------------------------------------------------------------------------------------------------------------------------------------------------------------------------------------------------------------------------------------
(PID.TID 0000.0001) //     16 ------------------------------------------------------------------------------------------------------------------------------------------------------------------------------------------------------------------------------------
(PID.TID 0000.0001) //     15 ------------------------------------------------------------------------------------------------------------------------------------------------------------------------------------------------------------------------------------
(PID.TID 0000.0001) //     14 ------------------------------------------------------------------------------------------------------------------------------------------------------------------------------------------------------------------------------------
(PID.TID 0000.0001) //     13 ------------------------------------------------------------------------------------------------------------------------------------------------------------------------------------------------------------------------------------
(PID.TID 0000.0001) //     12 ------------------------------------------------------------------------------------------------------------------------------------------------------------------------------------------------------------------------------------
(PID.TID 0000.0001) //     11 ------------------------------------------------------------------------------------------------------------------------------------------------------------------------------------------------------------------------------------
(PID.TID 0000.0001) //     10 ------------------------------------------------------------------------------------------------------------------------------------------------------------------------------------------------------------------------------------
(PID.TID 0000.0001) //      9 ------------------------------------------------------------------------------------------------------------------------------------------------------------------------------------------------------------------------------------
(PID.TID 0000.0001) //      8 ------------------------------------------------------------------------------------------------------------------------------------------------------------------------------------------------------------------------------------
(PID.TID 0000.0001) //      7 ------------------------------------------------------------------------------------------------------------------------------------------------------------------------------------------------------------------------------------
(PID.TID 0000.0001) //      6 ------------------------------------------------------------------------------------------------------------------------------------------------------------------------------------------------------------------------------------
(PID.TID 0000.0001) //      5 ------------------------------------------------------------------------------------------------------------------------------------------------------------------------------------------------------------------------------------
(PID.TID 0000.0001) //      4 ------------------------------------------------------------------------------------------------------------------------------------------------------------------------------------------------------------------------------------
(PID.TID 0000.0001) //      3 ------------------------------------------------------------------------------------------------------------------------------------------------------------------------------------------------------------------------------------
(PID.TID 0000.0001) //      2 ------------------------------------------------------------------------------------------------------------------------------------------------------------------------------------------------------------------------------------
(PID.TID 0000.0001) //      1 ------------------------------------------------------------------------------------------------------------------------------------------------------------------------------------------------------------------------------------
(PID.TID 0000.0001) //      0 ...--------------------------------......--------------------------------......--------------------------------......--------------------------------......--------------------------------......--------------------------------...
(PID.TID 0000.0001) //     -1 ...--------------------------------......--------------------------------......--------------------------------......--------------------------------......--------------------------------......--------------------------------...
(PID.TID 0000.0001) //     -2 ...--------------------------------......--------------------------------......--------------------------------......--------------------------------......--------------------------------......--------------------------------...
(PID.TID 0000.0001) // =======================================================
(PID.TID 0000.0001) // END OF FIELD                                          =
(PID.TID 0000.0001) // =======================================================
(PID.TID 0000.0001) 
(PID.TID 0000.0001) %MON fCori_max                    =   1.4535016908525E-04
(PID.TID 0000.0001) %MON fCori_min                    =  -1.4535016908525E-04
(PID.TID 0000.0001) %MON fCori_mean                   =   8.5365039215472E-22
(PID.TID 0000.0001) %MON fCori_sd                     =   8.3972192788621E-05
(PID.TID 0000.0001) %MON fCoriG_max                   =   1.4544410433286E-04
(PID.TID 0000.0001) %MON fCoriG_min                   =  -1.4544410433286E-04
(PID.TID 0000.0001) %MON fCoriG_mean                  =   9.9796700966398E-22
(PID.TID 0000.0001) %MON fCoriG_sd                    =   8.4860812167727E-05
(PID.TID 0000.0001)  PACKAGES_BOOT: opening data.pkg
(PID.TID 0000.0001)  OPEN_COPY_DATA_FILE: opening file data.pkg
(PID.TID 0000.0001) // =======================================================
(PID.TID 0000.0001) // Parameter file "data.pkg"
(PID.TID 0000.0001) // =======================================================
(PID.TID 0000.0001) ># Packages
(PID.TID 0000.0001) > &PACKAGES
(PID.TID 0000.0001) > &
(PID.TID 0000.0001) 
(PID.TID 0000.0001)  PACKAGES_BOOT: finished reading data.pkg
(PID.TID 0000.0001) // CG2D normalisation factor =          0.9892953673906058396458722E-05
(PID.TID 0000.0001) 
(PID.TID 0000.0001) // =======================================================
(PID.TID 0000.0001) // Model configuration
(PID.TID 0000.0001) // =======================================================
(PID.TID 0000.0001) //
(PID.TID 0000.0001) // "Physical" paramters ( PARM01 in namelist )
(PID.TID 0000.0001) //
(PID.TID 0000.0001) tRef =   /* Reference temperature profile ( oC or oK ) */
(PID.TID 0000.0001)                 0.000000000000000E+00       /* K =  1 */
(PID.TID 0000.0001)     ;
(PID.TID 0000.0001) sRef =   /* Reference salinity profile ( ppt ) */
(PID.TID 0000.0001)                 0.000000000000000E+00       /* K =  1 */
(PID.TID 0000.0001)     ;
(PID.TID 0000.0001) viscAh =   /* Lateral eddy viscosity ( m^2/s ) */
(PID.TID 0000.0001)                 0.000000000000000E+00
(PID.TID 0000.0001)     ;
(PID.TID 0000.0001) viscAh =   /* Lateral biharmonic viscosity ( m^4/s ) */
(PID.TID 0000.0001)                 0.000000000000000E+00
(PID.TID 0000.0001)     ;
(PID.TID 0000.0001) no_slip_sides =  /* Viscous BCs: No-slip sides */
(PID.TID 0000.0001)                   T
(PID.TID 0000.0001)     ;
(PID.TID 0000.0001) viscAr =   /* Vertical eddy viscosity ( units of r^2/s ) */
(PID.TID 0000.0001)                 0.000000000000000E+00
(PID.TID 0000.0001)     ;
(PID.TID 0000.0001) diffKhT =   /* Laplacian diffusion of heat laterally ( m^2/s ) */
(PID.TID 0000.0001)                 0.000000000000000E+00
(PID.TID 0000.0001)     ;
(PID.TID 0000.0001) diffK4T =   /* Bihaarmonic diffusion of heat laterally ( m^4/s ) */
(PID.TID 0000.0001)                 0.000000000000000E+00
(PID.TID 0000.0001)     ;
(PID.TID 0000.0001) diffKzT =   /* Laplacian diffusion of heat vertically ( m^2/s ) */
(PID.TID 0000.0001)                 1.234567000000000E+05
(PID.TID 0000.0001)     ;
(PID.TID 0000.0001) diffKrT =   /* Laplacian diffusion of heat vertically ( m^2/s ) */
(PID.TID 0000.0001)                 0.000000000000000E+00
(PID.TID 0000.0001)     ;
(PID.TID 0000.0001) diffKhS =   /* Laplacian diffusion of salt laterally ( m^2/s ) */
(PID.TID 0000.0001)                 0.000000000000000E+00
(PID.TID 0000.0001)     ;
(PID.TID 0000.0001) diffK4S =   /* Bihaarmonic diffusion of salt laterally ( m^4/s ) */
(PID.TID 0000.0001)                 0.000000000000000E+00
(PID.TID 0000.0001)     ;
(PID.TID 0000.0001) diffKzS =   /* Laplacian diffusion of salt vertically ( m^2/s ) */
(PID.TID 0000.0001)                 1.234567000000000E+05
(PID.TID 0000.0001)     ;
(PID.TID 0000.0001) diffKrS =   /* Laplacian diffusion of salt vertically ( m^2/s ) */
(PID.TID 0000.0001)                 0.000000000000000E+00
(PID.TID 0000.0001)     ;
(PID.TID 0000.0001) tAlpha =   /* Linear EOS thermal expansion coefficient ( 1/degree ) */
(PID.TID 0000.0001)                 2.000000000000000E-04
(PID.TID 0000.0001)     ;
(PID.TID 0000.0001) sBeta =   /* Linear EOS haline contraction coefficient ( 1/ppt ) */
(PID.TID 0000.0001)                 7.400000000000000E-04
(PID.TID 0000.0001)     ;
(PID.TID 0000.0001) rhonil =   /* Reference density ( kg/m^3 ) */
(PID.TID 0000.0001)                 9.998000000000000E+02
(PID.TID 0000.0001)     ;
(PID.TID 0000.0001) rhoConst =   /* Reference density ( kg/m^3 ) */
(PID.TID 0000.0001)                 9.998000000000000E+02
(PID.TID 0000.0001)     ;
(PID.TID 0000.0001) gravity =   /* Gravitational acceleration ( m/s^2 ) */
(PID.TID 0000.0001)                 9.810000000000000E+00
(PID.TID 0000.0001)     ;
(PID.TID 0000.0001) gBaro =   /* Barotropic gravity ( m/s^2 ) */
(PID.TID 0000.0001)                 9.810000000000000E+00
(PID.TID 0000.0001)     ;
(PID.TID 0000.0001) f0 =   /* Reference coriolis parameter ( 1/s ) */
(PID.TID 0000.0001)                 1.000000000000000E-04
(PID.TID 0000.0001)     ;
(PID.TID 0000.0001) beta =   /* Beta ( 1/(m.s) ) */
(PID.TID 0000.0001)                 9.999999999999999E-12
(PID.TID 0000.0001)     ;
(PID.TID 0000.0001) freeSurfFac =   /* Implicit free surface factor */
(PID.TID 0000.0001)                 1.000000000000000E+00
(PID.TID 0000.0001)     ;
(PID.TID 0000.0001) implicitFreeSurface =   /* Implicit free surface on/off flag */
(PID.TID 0000.0001)                   T
(PID.TID 0000.0001)     ;
(PID.TID 0000.0001) rigidLid =   /* Rigid lid on/off flag */
(PID.TID 0000.0001)                   F
(PID.TID 0000.0001)     ;
(PID.TID 0000.0001) implicSurfPress =   /* Surface Pressure implicit factor (0-1)*/
(PID.TID 0000.0001)                 1.000000000000000E+00
(PID.TID 0000.0001)     ;
(PID.TID 0000.0001) implicDiv2Dflow =   /* Barot. Flow Div. implicit factor (0-1)*/
(PID.TID 0000.0001)                 1.000000000000000E+00
(PID.TID 0000.0001)     ;
(PID.TID 0000.0001) staggerTimeStep =   /* Stagger time stepping on/off flag */
(PID.TID 0000.0001)                   F
(PID.TID 0000.0001)     ;
(PID.TID 0000.0001) momStepping =  /* Momentum equation on/off flag */
(PID.TID 0000.0001)                   F
(PID.TID 0000.0001)     ;
(PID.TID 0000.0001) momAdvection =  /* Momentum advection on/off flag */
(PID.TID 0000.0001)                   T
(PID.TID 0000.0001)     ;
(PID.TID 0000.0001) momViscosity =  /* Momentum viscosity on/off flag */
(PID.TID 0000.0001)                   T
(PID.TID 0000.0001)     ;
(PID.TID 0000.0001) useCoriolis =  /* Coriolis on/off flag */
(PID.TID 0000.0001)                   T
(PID.TID 0000.0001)     ;
(PID.TID 0000.0001) momForcing =  /* Momentum forcing on/off flag */
(PID.TID 0000.0001)                   T
(PID.TID 0000.0001)     ;
(PID.TID 0000.0001) momPressureForcing =  /* Momentum pressure term on/off flag */
(PID.TID 0000.0001)                   T
(PID.TID 0000.0001)     ;
(PID.TID 0000.0001) tempStepping =  /* Temperature equation on/off flag */
(PID.TID 0000.0001)                   T
(PID.TID 0000.0001)     ;
(PID.TID 0000.0001) nonHydrostatic =  /* Non-Hydrostatic on/off flag */
(PID.TID 0000.0001)                   F
(PID.TID 0000.0001)     ;
(PID.TID 0000.0001) //
(PID.TID 0000.0001) // Elliptic solver(s) paramters ( PARM02 in namelist )
(PID.TID 0000.0001) //
(PID.TID 0000.0001) cg2dMaxIters =   /* Upper limit on 2d con. grad iterations  */
(PID.TID 0000.0001)                     600
(PID.TID 0000.0001)     ;
(PID.TID 0000.0001) cg2dChkResFreq =   /* 2d con. grad convergence test frequency */
(PID.TID 0000.0001)                       1
(PID.TID 0000.0001)     ;
(PID.TID 0000.0001) cg2dTargetResidual =   /* 2d con. grad target residual  */
(PID.TID 0000.0001)                 1.000000000000000E-12
(PID.TID 0000.0001)     ;
(PID.TID 0000.0001) //
(PID.TID 0000.0001) // Time stepping paramters ( PARM03 in namelist )
(PID.TID 0000.0001) //
(PID.TID 0000.0001) nIter0 =   /* Base timestep number  */
(PID.TID 0000.0001)                       0
(PID.TID 0000.0001)     ;
(PID.TID 0000.0001) nTimeSteps =   /* Number of timesteps */
(PID.TID 0000.0001)                     288
(PID.TID 0000.0001)     ;
(PID.TID 0000.0001) deltatTmom =   /* Momentum equation timestep ( s ) */
(PID.TID 0000.0001)                 3.600000000000000E+03
(PID.TID 0000.0001)     ;
(PID.TID 0000.0001) deltatTtracer =   /* Tracer equation timestep ( s ) */
(PID.TID 0000.0001)                 3.600000000000000E+03
(PID.TID 0000.0001)     ;
(PID.TID 0000.0001) deltatTClock  =   /* Model clock timestep ( s ) */
(PID.TID 0000.0001)                 3.600000000000000E+03
(PID.TID 0000.0001)     ;
(PID.TID 0000.0001) cAdjFreq =   /* Convective adjustment interval ( s ) */
(PID.TID 0000.0001)                 0.000000000000000E+00
(PID.TID 0000.0001)     ;
(PID.TID 0000.0001) abeps =   /* Adams-Bashforth stabilizing weight */
(PID.TID 0000.0001)                 1.000000000000000E-01
(PID.TID 0000.0001)     ;
(PID.TID 0000.0001) tauCD =   /* CD coupling time-scale ( s ) */
(PID.TID 0000.0001)                 3.600000000000000E+03
(PID.TID 0000.0001)     ;
(PID.TID 0000.0001) rCD =   /* Normalised CD coupling parameter */
(PID.TID 0000.0001)                 0.000000000000000E+00
(PID.TID 0000.0001)     ;
(PID.TID 0000.0001) startTime =   /* Run start time ( s ). */
(PID.TID 0000.0001)                 0.000000000000000E+00
(PID.TID 0000.0001)     ;
(PID.TID 0000.0001) endTime =   /* Integration ending time ( s ). */
(PID.TID 0000.0001)                 1.036800000000000E+06
(PID.TID 0000.0001)     ;
(PID.TID 0000.0001) pChkPtFreq =   /* Permanent restart/checkpoint file interval ( s ). */
(PID.TID 0000.0001)                 0.000000000000000E+00
(PID.TID 0000.0001)     ;
(PID.TID 0000.0001) chkPtFreq =   /* Rolling restart/checkpoint file interval ( s ). */
(PID.TID 0000.0001)                 0.000000000000000E+00
(PID.TID 0000.0001)     ;
(PID.TID 0000.0001) dumpFreq =   /* Model state write out interval ( s ). */
(PID.TID 0000.0001)                 8.640000000000000E+04
(PID.TID 0000.0001)     ;
(PID.TID 0000.0001) //
(PID.TID 0000.0001) // Gridding paramters ( PARM04 in namelist )
(PID.TID 0000.0001) //
(PID.TID 0000.0001) usingCartesianGrid =   /* Cartesian coordinates flag ( True / False ) */
(PID.TID 0000.0001)                   F
(PID.TID 0000.0001)     ;
(PID.TID 0000.0001) usingSphericalPolarGrid =   /* Spherical coordinates flag ( True / False ) */
(PID.TID 0000.0001)                   F
(PID.TID 0000.0001)     ;
(PID.TID 0000.0001) groundAtK1 =   /* Lower Boundary (ground) at the surface(k=1) ( T / F ) */
(PID.TID 0000.0001)                   T
(PID.TID 0000.0001)     ;
(PID.TID 0000.0001) Ro_SeaLevel =   /* r(1) ( units of r ) */
(PID.TID 0000.0001)                 1.000000000000000E+05
(PID.TID 0000.0001)     ;
(PID.TID 0000.0001) rkFac =   /* minus Vertical index orientation  */
(PID.TID 0000.0001)                 1.000000000000000E+00
(PID.TID 0000.0001)     ;
(PID.TID 0000.0001) horiVertRatio =   /* Ratio on units : Horiz - Vertical */
(PID.TID 0000.0001)                 1.000000000000000E+00
(PID.TID 0000.0001)     ;
(PID.TID 0000.0001) delZ =   /* W spacing ( m ) */
(PID.TID 0000.0001)                 1.234567000000000E+05       /* K =  1 */
(PID.TID 0000.0001)     ;
(PID.TID 0000.0001) delP =   /* W spacing ( Pa ) */
(PID.TID 0000.0001)                 1.234567000000000E+05       /* K =  1 */
(PID.TID 0000.0001)     ;
(PID.TID 0000.0001) delR =   /* W spacing ( units of r ) */
(PID.TID 0000.0001)                 1.000000000000000E+05       /* K =  1 */
(PID.TID 0000.0001)     ;
(PID.TID 0000.0001) delX =   /* U spacing ( m - cartesian, degrees - spherical ) */
(PID.TID 0000.0001)   192 @  1.234567000000000E+05              /* I =  1:192 */
(PID.TID 0000.0001)     ;
(PID.TID 0000.0001) delY =   /* V spacing ( m - cartesian, degrees - spherical ) */
(PID.TID 0000.0001)    32 @  1.234567000000000E+05              /* J =  1: 32 */
(PID.TID 0000.0001)     ;
(PID.TID 0000.0001) phiMin =    /* South edge (ignored - cartesian, degrees - spherical ) */
(PID.TID 0000.0001)                 0.000000000000000E+00
(PID.TID 0000.0001)     ;
(PID.TID 0000.0001) thetaMin =    /* West edge ( ignored - cartesian, degrees - spherical ) */
(PID.TID 0000.0001)                 0.000000000000000E+00
(PID.TID 0000.0001)     ;
(PID.TID 0000.0001) rSphere =    /* Radius ( ignored - cartesian, m - spherical ) */
(PID.TID 0000.0001)                 6.370000000000000E+06
(PID.TID 0000.0001)     ;
(PID.TID 0000.0001) xcoord =   /* P-point X coord ( m - cartesian, degrees - spherical ) */
(PID.TID 0000.0001)                 1.356047800523947E+02,      /* I =  1 */
(PID.TID 0000.0001)                 1.370435872772412E+02,      /* I =  2 */
(PID.TID 0000.0001)                 1.387794444661104E+02,      /* I =  3 */
(PID.TID 0000.0001)                 1.407655371151270E+02,      /* I =  4 */
(PID.TID 0000.0001)                 1.429741484131780E+02,      /* I =  5 */
(PID.TID 0000.0001)                 1.453882063290585E+02,      /* I =  6 */
(PID.TID 0000.0001)                 1.479956543095821E+02,      /* I =  7 */
(PID.TID 0000.0001)                 1.507864403436732E+02,      /* I =  8 */
(PID.TID 0000.0001)                 1.537506777697171E+02,      /* I =  9 */
(PID.TID 0000.0001)                 1.568773874957365E+02,      /* I = 10 */
(PID.TID 0000.0001)                 1.601535928287294E+02,      /* I = 11 */
(PID.TID 0000.0001)                 1.635636919944486E+02,      /* I = 12 */
(PID.TID 0000.0001)                 1.670891019369793E+02,      /* I = 13 */
(PID.TID 0000.0001)                 1.707081921972806E+02,      /* I = 14 */
(PID.TID 0000.0001)                 1.743965246641777E+02,      /* I = 15 */
(PID.TID 0000.0001)                 1.781273914869666E+02,      /* I = 16 */
(PID.TID 0000.0001)                -1.781273914869666E+02,      /* I = 17 */
(PID.TID 0000.0001)                -1.743965246641777E+02,      /* I = 18 */
(PID.TID 0000.0001)                -1.707081921972806E+02,      /* I = 19 */
(PID.TID 0000.0001)                -1.670891019369793E+02,      /* I = 20 */
(PID.TID 0000.0001)                -1.635636919944486E+02,      /* I = 21 */
(PID.TID 0000.0001)                -1.601535928287294E+02,      /* I = 22 */
(PID.TID 0000.0001)                -1.568773874957365E+02,      /* I = 23 */
(PID.TID 0000.0001)                -1.537506777697171E+02,      /* I = 24 */
(PID.TID 0000.0001)                -1.507864403436732E+02,      /* I = 25 */
(PID.TID 0000.0001)                -1.479956543095821E+02,      /* I = 26 */
(PID.TID 0000.0001)                -1.453882063290585E+02,      /* I = 27 */
(PID.TID 0000.0001)                -1.429741484131780E+02,      /* I = 28 */
(PID.TID 0000.0001)                -1.407655371151270E+02,      /* I = 29 */
(PID.TID 0000.0001)                -1.387794444661104E+02,      /* I = 30 */
(PID.TID 0000.0001)                -1.370435872772412E+02,      /* I = 31 */
(PID.TID 0000.0001)                -1.356047800523947E+02,      /* I = 32 */
(PID.TID 0000.0001)                -1.343952199476053E+02,      /* I = 33 */
(PID.TID 0000.0001)                -1.329564127227588E+02,      /* I = 34 */
(PID.TID 0000.0001)                -1.312205555338896E+02,      /* I = 35 */
(PID.TID 0000.0001)                -1.292344628848730E+02,      /* I = 36 */
(PID.TID 0000.0001)                -1.270258515868220E+02,      /* I = 37 */
(PID.TID 0000.0001)                -1.246117936709415E+02,      /* I = 38 */
(PID.TID 0000.0001)                -1.220043456904179E+02,      /* I = 39 */
(PID.TID 0000.0001)                -1.192135596563268E+02,      /* I = 40 */
(PID.TID 0000.0001)                -1.162493222302829E+02,      /* I = 41 */
(PID.TID 0000.0001)                -1.131226125042634E+02,      /* I = 42 */
(PID.TID 0000.0001)                -1.098464071712706E+02,      /* I = 43 */
(PID.TID 0000.0001)                -1.064363080055513E+02,      /* I = 44 */
(PID.TID 0000.0001)                -1.029108980630207E+02,      /* I = 45 */
(PID.TID 0000.0001)                -9.929180780271940E+01,      /* I = 46 */
(PID.TID 0000.0001)                -9.560347533582234E+01,      /* I = 47 */
(PID.TID 0000.0001)                -9.187260851303344E+01,      /* I = 48 */
(PID.TID 0000.0001)                -8.812739148696656E+01,      /* I = 49 */
(PID.TID 0000.0001)                -8.439652466417766E+01,      /* I = 50 */
(PID.TID 0000.0001)                -8.070819219728060E+01,      /* I = 51 */
(PID.TID 0000.0001)                -7.708910193697932E+01,      /* I = 52 */
(PID.TID 0000.0001)                -7.356369199444866E+01,      /* I = 53 */
(PID.TID 0000.0001)                -7.015359282872943E+01,      /* I = 54 */
(PID.TID 0000.0001)                -6.687738749573657E+01,      /* I = 55 */
(PID.TID 0000.0001)                -6.375067776971709E+01,      /* I = 56 */
(PID.TID 0000.0001)                -6.078644034367323E+01,      /* I = 57 */
(PID.TID 0000.0001)                -5.799565430958209E+01,      /* I = 58 */
(PID.TID 0000.0001)                -5.538820632905851E+01,      /* I = 59 */
(PID.TID 0000.0001)                -5.297414841317800E+01,      /* I = 60 */
(PID.TID 0000.0001)                -5.076553711512695E+01,      /* I = 61 */
(PID.TID 0000.0001)                -4.877944446611043E+01,      /* I = 62 */
(PID.TID 0000.0001)                -4.704358727724115E+01,      /* I = 63 */
(PID.TID 0000.0001)                -4.560478005239466E+01,      /* I = 64 */
(PID.TID 0000.0001)                -1.350000000000000E+02,      /* I = 65 */
(PID.TID 0000.0001)                -1.337919453120371E+02,      /* I = 66 */
(PID.TID 0000.0001)                -1.321863035748696E+02,      /* I = 67 */
(PID.TID 0000.0001)                -1.302823232885607E+02,      /* I = 68 */
(PID.TID 0000.0001)                -1.281226168021277E+02,      /* I = 69 */
(PID.TID 0000.0001)                -1.257299562852129E+02,      /* I = 70 */
(PID.TID 0000.0001)                -1.231187167466594E+02,      /* I = 71 */
(PID.TID 0000.0001)                -1.202998183221324E+02,      /* I = 72 */
(PID.TID 0000.0001)                -1.172834500820765E+02,      /* I = 73 */
(PID.TID 0000.0001)                -1.140808539514698E+02,      /* I = 74 */
(PID.TID 0000.0001)                -1.107056072951585E+02,      /* I = 75 */
(PID.TID 0000.0001)                -1.071745419238385E+02,      /* I = 76 */
(PID.TID 0000.0001)                -1.035083116938107E+02,      /* I = 77 */
(PID.TID 0000.0001)                -9.973157196212824E+01,      /* I = 78 */
(PID.TID 0000.0001)                -9.587273256875815E+01,      /* I = 79 */
(PID.TID 0000.0001)                -9.196327991452495E+01,      /* I = 80 */
(PID.TID 0000.0001)                -8.803672008547505E+01,      /* I = 81 */
(PID.TID 0000.0001)                -8.412726743124185E+01,      /* I = 82 */
(PID.TID 0000.0001)                -8.026842803787176E+01,      /* I = 83 */
(PID.TID 0000.0001)                -7.649168830618933E+01,      /* I = 84 */
(PID.TID 0000.0001)                -7.282545807616151E+01,      /* I = 85 */
(PID.TID 0000.0001)                -6.929439270484148E+01,      /* I = 86 */
(PID.TID 0000.0001)                -6.591914604853017E+01,      /* I = 87 */
(PID.TID 0000.0001)                -6.271654991792349E+01,      /* I = 88 */
(PID.TID 0000.0001)                -5.970018167786763E+01,      /* I = 89 */
(PID.TID 0000.0001)                -5.688128325334063E+01,      /* I = 90 */
(PID.TID 0000.0001)                -5.427004371478710E+01,      /* I = 91 */
(PID.TID 0000.0001)                -5.187738319787232E+01,      /* I = 92 */
(PID.TID 0000.0001)                -4.971767671143927E+01,      /* I = 93 */
(PID.TID 0000.0001)                -4.781369642513038E+01,      /* I = 94 */
(PID.TID 0000.0001)                -4.620805468796295E+01,      /* I = 95 */
(PID.TID 0000.0001)                -4.500000000000000E+01,      /* I = 96 */
(PID.TID 0000.0001)                -4.439521994760534E+01,      /* I = 97 */
(PID.TID 0000.0001)                -4.416320923386709E+01,      /* I = 98 */
(PID.TID 0000.0001)                -4.402796178188066E+01,      /* I = 99 */
(PID.TID 0000.0001)                -4.393453430982110E+01,      /* I =100 */
(PID.TID 0000.0001)                -4.386554668529576E+01,      /* I =101 */
(PID.TID 0000.0001)                -4.381287805790190E+01,      /* I =102 */
(PID.TID 0000.0001)                -4.377192054903973E+01,      /* I =103 */
(PID.TID 0000.0001)                -4.373974889280663E+01,      /* I =104 */
(PID.TID 0000.0001)                -4.371437196732661E+01,      /* I =105 */
(PID.TID 0000.0001)                -4.369437337290993E+01,      /* I =106 */
(PID.TID 0000.0001)                -4.367871822605535E+01,      /* I =107 */
(PID.TID 0000.0001)                -4.366664040897447E+01,      /* I =108 */
(PID.TID 0000.0001)                -4.365757275742401E+01,      /* I =109 */
(PID.TID 0000.0001)                -4.365110212092870E+01,      /* I =110 */
(PID.TID 0000.0001)                -4.364693994094198E+01,      /* I =111 */
(PID.TID 0000.0001)     2 @ -4.364490324992833E+01,             /* I =112:113 */
(PID.TID 0000.0001)                -4.364693994094198E+01,      /* I =114 */
(PID.TID 0000.0001)                -4.365110212092870E+01,      /* I =115 */
(PID.TID 0000.0001)                -4.365757275742401E+01,      /* I =116 */
(PID.TID 0000.0001)                -4.366664040897447E+01,      /* I =117 */
(PID.TID 0000.0001)                -4.367871822605535E+01,      /* I =118 */
(PID.TID 0000.0001)                -4.369437337290993E+01,      /* I =119 */
(PID.TID 0000.0001)                -4.371437196732661E+01,      /* I =120 */
(PID.TID 0000.0001)                -4.373974889280663E+01,      /* I =121 */
(PID.TID 0000.0001)                -4.377192054903973E+01,      /* I =122 */
(PID.TID 0000.0001)                -4.381287805790190E+01,      /* I =123 */
(PID.TID 0000.0001)                -4.386554668529576E+01,      /* I =124 */
(PID.TID 0000.0001)                -4.393453430982110E+01,      /* I =125 */
(PID.TID 0000.0001)                -4.402796178188066E+01,      /* I =126 */
(PID.TID 0000.0001)                -4.416320923386709E+01,      /* I =127 */
(PID.TID 0000.0001)                -4.439521994760534E+01,      /* I =128 */
(PID.TID 0000.0001)                 4.560478005239466E+01,      /* I =129 */
(PID.TID 0000.0001)                 4.583679076613291E+01,      /* I =130 */
(PID.TID 0000.0001)                 4.597203821811934E+01,      /* I =131 */
(PID.TID 0000.0001)                 4.606546569017890E+01,      /* I =132 */
(PID.TID 0000.0001)                 4.613445331470424E+01,      /* I =133 */
(PID.TID 0000.0001)                 4.618712194209810E+01,      /* I =134 */
(PID.TID 0000.0001)                 4.622807945096027E+01,      /* I =135 */
(PID.TID 0000.0001)                 4.626025110719337E+01,      /* I =136 */
(PID.TID 0000.0001)                 4.628562803267339E+01,      /* I =137 */
(PID.TID 0000.0001)                 4.630562662709007E+01,      /* I =138 */
(PID.TID 0000.0001)                 4.632128177394465E+01,      /* I =139 */
(PID.TID 0000.0001)                 4.633335959102553E+01,      /* I =140 */
(PID.TID 0000.0001)                 4.634242724257599E+01,      /* I =141 */
(PID.TID 0000.0001)                 4.634889787907130E+01,      /* I =142 */
(PID.TID 0000.0001)                 4.635306005905802E+01,      /* I =143 */
(PID.TID 0000.0001)     2 @  4.635509675007167E+01,             /* I =144:145 */
(PID.TID 0000.0001)                 4.635306005905802E+01,      /* I =146 */
(PID.TID 0000.0001)                 4.634889787907130E+01,      /* I =147 */
(PID.TID 0000.0001)                 4.634242724257599E+01,      /* I =148 */
(PID.TID 0000.0001)                 4.633335959102553E+01,      /* I =149 */
(PID.TID 0000.0001)                 4.632128177394465E+01,      /* I =150 */
(PID.TID 0000.0001)                 4.630562662709007E+01,      /* I =151 */
(PID.TID 0000.0001)                 4.628562803267339E+01,      /* I =152 */
(PID.TID 0000.0001)                 4.626025110719337E+01,      /* I =153 */
(PID.TID 0000.0001)                 4.622807945096027E+01,      /* I =154 */
(PID.TID 0000.0001)                 4.618712194209810E+01,      /* I =155 */
(PID.TID 0000.0001)                 4.613445331470424E+01,      /* I =156 */
(PID.TID 0000.0001)                 4.606546569017890E+01,      /* I =157 */
(PID.TID 0000.0001)                 4.597203821811934E+01,      /* I =158 */
(PID.TID 0000.0001)                 4.583679076613291E+01,      /* I =159 */
(PID.TID 0000.0001)                 4.560478005239466E+01,      /* I =160 */
(PID.TID 0000.0001)                 4.500000000000000E+01,      /* I =161 */
(PID.TID 0000.0001)                 4.379194531203705E+01,      /* I =162 */
(PID.TID 0000.0001)                 4.218630357486962E+01,      /* I =163 */
(PID.TID 0000.0001)                 4.028232328856073E+01,      /* I =164 */
(PID.TID 0000.0001)                 3.812261680212768E+01,      /* I =165 */
(PID.TID 0000.0001)                 3.572995628521290E+01,      /* I =166 */
(PID.TID 0000.0001)                 3.311871674665937E+01,      /* I =167 */
(PID.TID 0000.0001)                 3.029981832213237E+01,      /* I =168 */
(PID.TID 0000.0001)                 2.728345008207651E+01,      /* I =169 */
(PID.TID 0000.0001)                 2.408085395146982E+01,      /* I =170 */
(PID.TID 0000.0001)                 2.070560729515852E+01,      /* I =171 */
(PID.TID 0000.0001)                 1.717454192383849E+01,      /* I =172 */
(PID.TID 0000.0001)                 1.350831169381066E+01,      /* I =173 */
(PID.TID 0000.0001)                 9.731571962128257E+00,      /* I =174 */
(PID.TID 0000.0001)                 5.872732568758167E+00,      /* I =175 */
(PID.TID 0000.0001)                 1.963279914524932E+00,      /* I =176 */
(PID.TID 0000.0001)                -1.963279914524932E+00,      /* I =177 */
(PID.TID 0000.0001)                -5.872732568758167E+00,      /* I =178 */
(PID.TID 0000.0001)                -9.731571962128257E+00,      /* I =179 */
(PID.TID 0000.0001)                -1.350831169381066E+01,      /* I =180 */
(PID.TID 0000.0001)                -1.717454192383849E+01,      /* I =181 */
(PID.TID 0000.0001)                -2.070560729515852E+01,      /* I =182 */
(PID.TID 0000.0001)                -2.408085395146982E+01,      /* I =183 */
(PID.TID 0000.0001)                -2.728345008207651E+01,      /* I =184 */
(PID.TID 0000.0001)                -3.029981832213237E+01,      /* I =185 */
(PID.TID 0000.0001)                -3.311871674665937E+01,      /* I =186 */
(PID.TID 0000.0001)                -3.572995628521290E+01,      /* I =187 */
(PID.TID 0000.0001)                -3.812261680212768E+01,      /* I =188 */
(PID.TID 0000.0001)                -4.028232328856073E+01,      /* I =189 */
(PID.TID 0000.0001)                -4.218630357486962E+01,      /* I =190 */
(PID.TID 0000.0001)                -4.379194531203705E+01,      /* I =191 */
(PID.TID 0000.0001)                -4.500000000000000E+01       /* I =192 */
(PID.TID 0000.0001)     ;
(PID.TID 0000.0001) ycoord =   /* P-point Y coord ( m - cartesian, degrees - spherical ) */
(PID.TID 0000.0001)                -3.497677942598243E+01,      /* J =  1 */
(PID.TID 0000.0001)                -3.374005967394886E+01,      /* J =  2 */
(PID.TID 0000.0001)                -3.220655175667454E+01,      /* J =  3 */
(PID.TID 0000.0001)                -3.045756348838641E+01,      /* J =  4 */
(PID.TID 0000.0001)                -2.853728129852918E+01,      /* J =  5 */
(PID.TID 0000.0001)                -2.647426640173173E+01,      /* J =  6 */
(PID.TID 0000.0001)                -2.428936657094636E+01,      /* J =  7 */
(PID.TID 0000.0001)                -2.199915808312262E+01,      /* J =  8 */
(PID.TID 0000.0001)                -1.961768597440146E+01,      /* J =  9 */
(PID.TID 0000.0001)                -1.715743888281371E+01,      /* J = 10 */
(PID.TID 0000.0001)                -1.462993396899330E+01,      /* J = 11 */
(PID.TID 0000.0001)                -1.204608340464756E+01,      /* J = 12 */
(PID.TID 0000.0001)                -9.416429130284818E+00,      /* J = 13 */
(PID.TID 0000.0001)                -6.751293662992216E+00,      /* J = 14 */
(PID.TID 0000.0001)                -4.060875511835959E+00,      /* J = 15 */
(PID.TID 0000.0001)                -1.355307764409121E+00,      /* J = 16 */
(PID.TID 0000.0001)                 1.355307764409121E+00,      /* J = 17 */
(PID.TID 0000.0001)                 4.060875511835959E+00,      /* J = 18 */
(PID.TID 0000.0001)                 6.751293662992216E+00,      /* J = 19 */
(PID.TID 0000.0001)                 9.416429130284818E+00,      /* J = 20 */
(PID.TID 0000.0001)                 1.204608340464756E+01,      /* J = 21 */
(PID.TID 0000.0001)                 1.462993396899330E+01,      /* J = 22 */
(PID.TID 0000.0001)                 1.715743888281371E+01,      /* J = 23 */
(PID.TID 0000.0001)                 1.961768597440146E+01,      /* J = 24 */
(PID.TID 0000.0001)                 2.199915808312262E+01,      /* J = 25 */
(PID.TID 0000.0001)                 2.428936657094636E+01,      /* J = 26 */
(PID.TID 0000.0001)                 2.647426640173173E+01,      /* J = 27 */
(PID.TID 0000.0001)                 2.853728129852918E+01,      /* J = 28 */
(PID.TID 0000.0001)                 3.045756348838641E+01,      /* J = 29 */
(PID.TID 0000.0001)                 3.220655175667454E+01,      /* J = 30 */
(PID.TID 0000.0001)                 3.374005967394886E+01,      /* J = 31 */
(PID.TID 0000.0001)                 3.497677942598243E+01       /* J = 32 */
(PID.TID 0000.0001)     ;
(PID.TID 0000.0001) rcoord =   /* P-point R coordinate (  units of r ) */
(PID.TID 0000.0001)                 5.000000000000000E+04       /* K =  1 */
(PID.TID 0000.0001)     ;
(PID.TID 0000.0001) dxF =  /* dxF(:,1,:,1) ( m - cartesian, degrees - spherical ) */
(PID.TID 0000.0001)                 1.208164497427513E+05,      /* I =  1 */
(PID.TID 0000.0001)                 1.563893108133410E+05,      /* I =  2 */
(PID.TID 0000.0001)                 1.835578660170750E+05,      /* I =  3 */
(PID.TID 0000.0001)                 2.045897643777963E+05,      /* I =  4 */
(PID.TID 0000.0001)                 2.218355892332067E+05,      /* I =  5 */
(PID.TID 0000.0001)                 2.364355578808568E+05,      /* I =  6 */
(PID.TID 0000.0001)                 2.490024063194764E+05,      /* I =  7 */
(PID.TID 0000.0001)                 2.598920493028891E+05,      /* I =  8 */
(PID.TID 0000.0001)                 2.693210711270105E+05,      /* I =  9 */
(PID.TID 0000.0001)                 2.774243477569765E+05,      /* I = 10 */
(PID.TID 0000.0001)                 2.842862732306662E+05,      /* I = 11 */
(PID.TID 0000.0001)                 2.899590841291803E+05,      /* I = 12 */
(PID.TID 0000.0001)                 2.944743020883619E+05,      /* I = 13 */
(PID.TID 0000.0001)                 2.978502004615897E+05,      /* I = 14 */
(PID.TID 0000.0001)                 3.000967821328745E+05,      /* I = 15 */
(PID.TID 0000.0001)     2 @  3.012191048042373E+05,             /* I = 16: 17 */
(PID.TID 0000.0001)                 3.000967821328745E+05,      /* I = 18 */
(PID.TID 0000.0001)                 2.978502004615897E+05,      /* I = 19 */
(PID.TID 0000.0001)                 2.944743020883619E+05,      /* I = 20 */
(PID.TID 0000.0001)                 2.899590841291803E+05,      /* I = 21 */
(PID.TID 0000.0001)                 2.842862732306662E+05,      /* I = 22 */
(PID.TID 0000.0001)                 2.774243477569765E+05,      /* I = 23 */
(PID.TID 0000.0001)                 2.693210711270105E+05,      /* I = 24 */
(PID.TID 0000.0001)                 2.598920493028891E+05,      /* I = 25 */
(PID.TID 0000.0001)                 2.490024063194764E+05,      /* I = 26 */
(PID.TID 0000.0001)                 2.364355578808568E+05,      /* I = 27 */
(PID.TID 0000.0001)                 2.218355892332067E+05,      /* I = 28 */
(PID.TID 0000.0001)                 2.045897643777963E+05,      /* I = 29 */
(PID.TID 0000.0001)                 1.835578660170750E+05,      /* I = 30 */
(PID.TID 0000.0001)                 1.563893108133410E+05,      /* I = 31 */
(PID.TID 0000.0001)     2 @  1.208164497427513E+05,             /* I = 32: 33 */
(PID.TID 0000.0001)                 1.563893108133410E+05,      /* I = 34 */
(PID.TID 0000.0001)                 1.835578660170750E+05,      /* I = 35 */
(PID.TID 0000.0001)                 2.045897643777963E+05,      /* I = 36 */
(PID.TID 0000.0001)                 2.218355892332067E+05,      /* I = 37 */
(PID.TID 0000.0001)                 2.364355578808568E+05,      /* I = 38 */
(PID.TID 0000.0001)                 2.490024063194764E+05,      /* I = 39 */
(PID.TID 0000.0001)                 2.598920493028891E+05,      /* I = 40 */
(PID.TID 0000.0001)                 2.693210711270105E+05,      /* I = 41 */
(PID.TID 0000.0001)                 2.774243477569765E+05,      /* I = 42 */
(PID.TID 0000.0001)                 2.842862732306662E+05,      /* I = 43 */
(PID.TID 0000.0001)                 2.899590841291803E+05,      /* I = 44 */
(PID.TID 0000.0001)                 2.944743020883619E+05,      /* I = 45 */
(PID.TID 0000.0001)                 2.978502004615897E+05,      /* I = 46 */
(PID.TID 0000.0001)                 3.000967821328745E+05,      /* I = 47 */
(PID.TID 0000.0001)     2 @  3.012191048042373E+05,             /* I = 48: 49 */
(PID.TID 0000.0001)                 3.000967821328745E+05,      /* I = 50 */
(PID.TID 0000.0001)                 2.978502004615897E+05,      /* I = 51 */
(PID.TID 0000.0001)                 2.944743020883619E+05,      /* I = 52 */
(PID.TID 0000.0001)                 2.899590841291803E+05,      /* I = 53 */
(PID.TID 0000.0001)                 2.842862732306662E+05,      /* I = 54 */
(PID.TID 0000.0001)                 2.774243477569765E+05,      /* I = 55 */
(PID.TID 0000.0001)                 2.693210711270105E+05,      /* I = 56 */
(PID.TID 0000.0001)                 2.598920493028891E+05,      /* I = 57 */
(PID.TID 0000.0001)                 2.490024063194764E+05,      /* I = 58 */
(PID.TID 0000.0001)                 2.364355578808568E+05,      /* I = 59 */
(PID.TID 0000.0001)                 2.218355892332067E+05,      /* I = 60 */
(PID.TID 0000.0001)                 2.045897643777963E+05,      /* I = 61 */
(PID.TID 0000.0001)                 1.835578660170750E+05,      /* I = 62 */
(PID.TID 0000.0001)                 1.563893108133410E+05,      /* I = 63 */
(PID.TID 0000.0001)     2 @  1.208164497427513E+05,             /* I = 64: 65 */
(PID.TID 0000.0001)                 1.563893108133410E+05,      /* I = 66 */
(PID.TID 0000.0001)                 1.835578660170750E+05,      /* I = 67 */
(PID.TID 0000.0001)                 2.045897643777963E+05,      /* I = 68 */
(PID.TID 0000.0001)                 2.218355892332067E+05,      /* I = 69 */
(PID.TID 0000.0001)                 2.364355578808568E+05,      /* I = 70 */
(PID.TID 0000.0001)                 2.490024063194764E+05,      /* I = 71 */
(PID.TID 0000.0001)                 2.598920493028891E+05,      /* I = 72 */
(PID.TID 0000.0001)                 2.693210711270105E+05,      /* I = 73 */
(PID.TID 0000.0001)                 2.774243477569765E+05,      /* I = 74 */
(PID.TID 0000.0001)                 2.842862732306662E+05,      /* I = 75 */
(PID.TID 0000.0001)                 2.899590841291803E+05,      /* I = 76 */
(PID.TID 0000.0001)                 2.944743020883619E+05,      /* I = 77 */
(PID.TID 0000.0001)                 2.978502004615897E+05,      /* I = 78 */
(PID.TID 0000.0001)                 3.000967821328745E+05,      /* I = 79 */
(PID.TID 0000.0001)     2 @  3.012191048042373E+05,             /* I = 80: 81 */
(PID.TID 0000.0001)                 3.000967821328745E+05,      /* I = 82 */
(PID.TID 0000.0001)                 2.978502004615897E+05,      /* I = 83 */
(PID.TID 0000.0001)                 2.944743020883619E+05,      /* I = 84 */
(PID.TID 0000.0001)                 2.899590841291803E+05,      /* I = 85 */
(PID.TID 0000.0001)                 2.842862732306662E+05,      /* I = 86 */
(PID.TID 0000.0001)                 2.774243477569765E+05,      /* I = 87 */
(PID.TID 0000.0001)                 2.693210711270105E+05,      /* I = 88 */
(PID.TID 0000.0001)                 2.598920493028891E+05,      /* I = 89 */
(PID.TID 0000.0001)                 2.490024063194764E+05,      /* I = 90 */
(PID.TID 0000.0001)                 2.364355578808568E+05,      /* I = 91 */
(PID.TID 0000.0001)                 2.218355892332067E+05,      /* I = 92 */
(PID.TID 0000.0001)                 2.045897643777963E+05,      /* I = 93 */
(PID.TID 0000.0001)                 1.835578660170750E+05,      /* I = 94 */
(PID.TID 0000.0001)                 1.563893108133410E+05,      /* I = 95 */
(PID.TID 0000.0001)     2 @  1.208164497427513E+05,             /* I = 96: 97 */
(PID.TID 0000.0001)                 1.563893108133410E+05,      /* I = 98 */
(PID.TID 0000.0001)                 1.835578660170750E+05,      /* I = 99 */
(PID.TID 0000.0001)                 2.045897643777963E+05,      /* I =100 */
(PID.TID 0000.0001)                 2.218355892332067E+05,      /* I =101 */
(PID.TID 0000.0001)                 2.364355578808568E+05,      /* I =102 */
(PID.TID 0000.0001)                 2.490024063194764E+05,      /* I =103 */
(PID.TID 0000.0001)                 2.598920493028891E+05,      /* I =104 */
(PID.TID 0000.0001)                 2.693210711270105E+05,      /* I =105 */
(PID.TID 0000.0001)                 2.774243477569765E+05,      /* I =106 */
(PID.TID 0000.0001)                 2.842862732306662E+05,      /* I =107 */
(PID.TID 0000.0001)                 2.899590841291803E+05,      /* I =108 */
(PID.TID 0000.0001)                 2.944743020883619E+05,      /* I =109 */
(PID.TID 0000.0001)                 2.978502004615897E+05,      /* I =110 */
(PID.TID 0000.0001)                 3.000967821328745E+05,      /* I =111 */
(PID.TID 0000.0001)     2 @  3.012191048042373E+05,             /* I =112:113 */
(PID.TID 0000.0001)                 3.000967821328745E+05,      /* I =114 */
(PID.TID 0000.0001)                 2.978502004615897E+05,      /* I =115 */
(PID.TID 0000.0001)                 2.944743020883619E+05,      /* I =116 */
(PID.TID 0000.0001)                 2.899590841291803E+05,      /* I =117 */
(PID.TID 0000.0001)                 2.842862732306662E+05,      /* I =118 */
(PID.TID 0000.0001)                 2.774243477569765E+05,      /* I =119 */
(PID.TID 0000.0001)                 2.693210711270105E+05,      /* I =120 */
(PID.TID 0000.0001)                 2.598920493028891E+05,      /* I =121 */
(PID.TID 0000.0001)                 2.490024063194764E+05,      /* I =122 */
(PID.TID 0000.0001)                 2.364355578808568E+05,      /* I =123 */
(PID.TID 0000.0001)                 2.218355892332067E+05,      /* I =124 */
(PID.TID 0000.0001)                 2.045897643777963E+05,      /* I =125 */
(PID.TID 0000.0001)                 1.835578660170750E+05,      /* I =126 */
(PID.TID 0000.0001)                 1.563893108133410E+05,      /* I =127 */
(PID.TID 0000.0001)     2 @  1.208164497427513E+05,             /* I =128:129 */
(PID.TID 0000.0001)                 1.563893108133410E+05,      /* I =130 */
(PID.TID 0000.0001)                 1.835578660170750E+05,      /* I =131 */
(PID.TID 0000.0001)                 2.045897643777963E+05,      /* I =132 */
(PID.TID 0000.0001)                 2.218355892332067E+05,      /* I =133 */
(PID.TID 0000.0001)                 2.364355578808568E+05,      /* I =134 */
(PID.TID 0000.0001)                 2.490024063194764E+05,      /* I =135 */
(PID.TID 0000.0001)                 2.598920493028891E+05,      /* I =136 */
(PID.TID 0000.0001)                 2.693210711270105E+05,      /* I =137 */
(PID.TID 0000.0001)                 2.774243477569765E+05,      /* I =138 */
(PID.TID 0000.0001)                 2.842862732306662E+05,      /* I =139 */
(PID.TID 0000.0001)                 2.899590841291803E+05,      /* I =140 */
(PID.TID 0000.0001)                 2.944743020883619E+05,      /* I =141 */
(PID.TID 0000.0001)                 2.978502004615897E+05,      /* I =142 */
(PID.TID 0000.0001)                 3.000967821328745E+05,      /* I =143 */
(PID.TID 0000.0001)     2 @  3.012191048042373E+05,             /* I =144:145 */
(PID.TID 0000.0001)                 3.000967821328745E+05,      /* I =146 */
(PID.TID 0000.0001)                 2.978502004615897E+05,      /* I =147 */
(PID.TID 0000.0001)                 2.944743020883619E+05,      /* I =148 */
(PID.TID 0000.0001)                 2.899590841291803E+05,      /* I =149 */
(PID.TID 0000.0001)                 2.842862732306662E+05,      /* I =150 */
(PID.TID 0000.0001)                 2.774243477569765E+05,      /* I =151 */
(PID.TID 0000.0001)                 2.693210711270105E+05,      /* I =152 */
(PID.TID 0000.0001)                 2.598920493028891E+05,      /* I =153 */
(PID.TID 0000.0001)                 2.490024063194764E+05,      /* I =154 */
(PID.TID 0000.0001)                 2.364355578808568E+05,      /* I =155 */
(PID.TID 0000.0001)                 2.218355892332067E+05,      /* I =156 */
(PID.TID 0000.0001)                 2.045897643777963E+05,      /* I =157 */
(PID.TID 0000.0001)                 1.835578660170750E+05,      /* I =158 */
(PID.TID 0000.0001)                 1.563893108133410E+05,      /* I =159 */
(PID.TID 0000.0001)     2 @  1.208164497427513E+05,             /* I =160:161 */
(PID.TID 0000.0001)                 1.563893108133410E+05,      /* I =162 */
(PID.TID 0000.0001)                 1.835578660170750E+05,      /* I =163 */
(PID.TID 0000.0001)                 2.045897643777963E+05,      /* I =164 */
(PID.TID 0000.0001)                 2.218355892332067E+05,      /* I =165 */
(PID.TID 0000.0001)                 2.364355578808568E+05,      /* I =166 */
(PID.TID 0000.0001)                 2.490024063194764E+05,      /* I =167 */
(PID.TID 0000.0001)                 2.598920493028891E+05,      /* I =168 */
(PID.TID 0000.0001)                 2.693210711270105E+05,      /* I =169 */
(PID.TID 0000.0001)                 2.774243477569765E+05,      /* I =170 */
(PID.TID 0000.0001)                 2.842862732306662E+05,      /* I =171 */
(PID.TID 0000.0001)                 2.899590841291803E+05,      /* I =172 */
(PID.TID 0000.0001)                 2.944743020883619E+05,      /* I =173 */
(PID.TID 0000.0001)                 2.978502004615897E+05,      /* I =174 */
(PID.TID 0000.0001)                 3.000967821328745E+05,      /* I =175 */
(PID.TID 0000.0001)     2 @  3.012191048042373E+05,             /* I =176:177 */
(PID.TID 0000.0001)                 3.000967821328745E+05,      /* I =178 */
(PID.TID 0000.0001)                 2.978502004615897E+05,      /* I =179 */
(PID.TID 0000.0001)                 2.944743020883619E+05,      /* I =180 */
(PID.TID 0000.0001)                 2.899590841291803E+05,      /* I =181 */
(PID.TID 0000.0001)                 2.842862732306662E+05,      /* I =182 */
(PID.TID 0000.0001)                 2.774243477569765E+05,      /* I =183 */
(PID.TID 0000.0001)                 2.693210711270105E+05,      /* I =184 */
(PID.TID 0000.0001)                 2.598920493028891E+05,      /* I =185 */
(PID.TID 0000.0001)                 2.490024063194764E+05,      /* I =186 */
(PID.TID 0000.0001)                 2.364355578808568E+05,      /* I =187 */
(PID.TID 0000.0001)                 2.218355892332067E+05,      /* I =188 */
(PID.TID 0000.0001)                 2.045897643777963E+05,      /* I =189 */
(PID.TID 0000.0001)                 1.835578660170750E+05,      /* I =190 */
(PID.TID 0000.0001)                 1.563893108133410E+05,      /* I =191 */
(PID.TID 0000.0001)                 1.208164497427513E+05       /* I =192 */
(PID.TID 0000.0001)     ;
(PID.TID 0000.0001) dxF =  /* dxF(1,:,1,:) ( m - cartesian, degrees - spherical ) */
(PID.TID 0000.0001)                 1.208164497427513E+05,      /* J =  1 */
(PID.TID 0000.0001)                 1.575313246967297E+05,      /* J =  2 */
(PID.TID 0000.0001)                 1.841567262292191E+05,      /* J =  3 */
(PID.TID 0000.0001)                 2.049540475644011E+05,      /* J =  4 */
(PID.TID 0000.0001)                 2.220840793516689E+05,      /* J =  5 */
(PID.TID 0000.0001)                 2.366191866372900E+05,      /* J =  6 */
(PID.TID 0000.0001)                 2.491464083009804E+05,      /* J =  7 */
(PID.TID 0000.0001)                 2.600103750884694E+05,      /* J =  8 */
(PID.TID 0000.0001)                 2.694220899589415E+05,      /* J =  9 */
(PID.TID 0000.0001)                 2.775134021642698E+05,      /* J = 10 */
(PID.TID 0000.0001)                 2.843669426491172E+05,      /* J = 11 */
(PID.TID 0000.0001)                 2.900338631125396E+05,      /* J = 12 */
(PID.TID 0000.0001)                 2.945449914488923E+05,      /* J = 13 */
(PID.TID 0000.0001)                 2.979181490241748E+05,      /* J = 14 */
(PID.TID 0000.0001)                 3.001630475443809E+05,      /* J = 15 */
(PID.TID 0000.0001)     2 @  3.012845239852109E+05,             /* J = 16: 17 */
(PID.TID 0000.0001)                 3.001630475443809E+05,      /* J = 18 */
(PID.TID 0000.0001)                 2.979181490241748E+05,      /* J = 19 */
(PID.TID 0000.0001)                 2.945449914488923E+05,      /* J = 20 */
(PID.TID 0000.0001)                 2.900338631125396E+05,      /* J = 21 */
(PID.TID 0000.0001)                 2.843669426491172E+05,      /* J = 22 */
(PID.TID 0000.0001)                 2.775134021642698E+05,      /* J = 23 */
(PID.TID 0000.0001)                 2.694220899589415E+05,      /* J = 24 */
(PID.TID 0000.0001)                 2.600103750884694E+05,      /* J = 25 */
(PID.TID 0000.0001)                 2.491464083009804E+05,      /* J = 26 */
(PID.TID 0000.0001)                 2.366191866372900E+05,      /* J = 27 */
(PID.TID 0000.0001)                 2.220840793516689E+05,      /* J = 28 */
(PID.TID 0000.0001)                 2.049540475644011E+05,      /* J = 29 */
(PID.TID 0000.0001)                 1.841567262292191E+05,      /* J = 30 */
(PID.TID 0000.0001)                 1.575313246967297E+05,      /* J = 31 */
(PID.TID 0000.0001)                 1.208164497427513E+05       /* J = 32 */
(PID.TID 0000.0001)     ;
(PID.TID 0000.0001) dyF =  /* dyF(:,1,:,1) ( m - cartesian, degrees - spherical ) */
(PID.TID 0000.0001)                 1.208164497427513E+05,      /* I =  1 */
(PID.TID 0000.0001)                 1.575313246967297E+05,      /* I =  2 */
(PID.TID 0000.0001)                 1.841567262292191E+05,      /* I =  3 */
(PID.TID 0000.0001)                 2.049540475644011E+05,      /* I =  4 */
(PID.TID 0000.0001)                 2.220840793516689E+05,      /* I =  5 */
(PID.TID 0000.0001)                 2.366191866372900E+05,      /* I =  6 */
(PID.TID 0000.0001)                 2.491464083009804E+05,      /* I =  7 */
(PID.TID 0000.0001)                 2.600103750884694E+05,      /* I =  8 */
(PID.TID 0000.0001)                 2.694220899589415E+05,      /* I =  9 */
(PID.TID 0000.0001)                 2.775134021642698E+05,      /* I = 10 */
(PID.TID 0000.0001)                 2.843669426491172E+05,      /* I = 11 */
(PID.TID 0000.0001)                 2.900338631125396E+05,      /* I = 12 */
(PID.TID 0000.0001)                 2.945449914488923E+05,      /* I = 13 */
(PID.TID 0000.0001)                 2.979181490241748E+05,      /* I = 14 */
(PID.TID 0000.0001)                 3.001630475443809E+05,      /* I = 15 */
(PID.TID 0000.0001)     2 @  3.012845239852109E+05,             /* I = 16: 17 */
(PID.TID 0000.0001)                 3.001630475443809E+05,      /* I = 18 */
(PID.TID 0000.0001)                 2.979181490241748E+05,      /* I = 19 */
(PID.TID 0000.0001)                 2.945449914488923E+05,      /* I = 20 */
(PID.TID 0000.0001)                 2.900338631125396E+05,      /* I = 21 */
(PID.TID 0000.0001)                 2.843669426491172E+05,      /* I = 22 */
(PID.TID 0000.0001)                 2.775134021642698E+05,      /* I = 23 */
(PID.TID 0000.0001)                 2.694220899589415E+05,      /* I = 24 */
(PID.TID 0000.0001)                 2.600103750884694E+05,      /* I = 25 */
(PID.TID 0000.0001)                 2.491464083009804E+05,      /* I = 26 */
(PID.TID 0000.0001)                 2.366191866372900E+05,      /* I = 27 */
(PID.TID 0000.0001)                 2.220840793516689E+05,      /* I = 28 */
(PID.TID 0000.0001)                 2.049540475644011E+05,      /* I = 29 */
(PID.TID 0000.0001)                 1.841567262292191E+05,      /* I = 30 */
(PID.TID 0000.0001)                 1.575313246967297E+05,      /* I = 31 */
(PID.TID 0000.0001)     2 @  1.208164497427513E+05,             /* I = 32: 33 */
(PID.TID 0000.0001)                 1.575313246967297E+05,      /* I = 34 */
(PID.TID 0000.0001)                 1.841567262292191E+05,      /* I = 35 */
(PID.TID 0000.0001)                 2.049540475644011E+05,      /* I = 36 */
(PID.TID 0000.0001)                 2.220840793516689E+05,      /* I = 37 */
(PID.TID 0000.0001)                 2.366191866372900E+05,      /* I = 38 */
(PID.TID 0000.0001)                 2.491464083009804E+05,      /* I = 39 */
(PID.TID 0000.0001)                 2.600103750884694E+05,      /* I = 40 */
(PID.TID 0000.0001)                 2.694220899589415E+05,      /* I = 41 */
(PID.TID 0000.0001)                 2.775134021642698E+05,      /* I = 42 */
(PID.TID 0000.0001)                 2.843669426491172E+05,      /* I = 43 */
(PID.TID 0000.0001)                 2.900338631125396E+05,      /* I = 44 */
(PID.TID 0000.0001)                 2.945449914488923E+05,      /* I = 45 */
(PID.TID 0000.0001)                 2.979181490241748E+05,      /* I = 46 */
(PID.TID 0000.0001)                 3.001630475443809E+05,      /* I = 47 */
(PID.TID 0000.0001)     2 @  3.012845239852109E+05,             /* I = 48: 49 */
(PID.TID 0000.0001)                 3.001630475443809E+05,      /* I = 50 */
(PID.TID 0000.0001)                 2.979181490241748E+05,      /* I = 51 */
(PID.TID 0000.0001)                 2.945449914488923E+05,      /* I = 52 */
(PID.TID 0000.0001)                 2.900338631125396E+05,      /* I = 53 */
(PID.TID 0000.0001)                 2.843669426491172E+05,      /* I = 54 */
(PID.TID 0000.0001)                 2.775134021642698E+05,      /* I = 55 */
(PID.TID 0000.0001)                 2.694220899589415E+05,      /* I = 56 */
(PID.TID 0000.0001)                 2.600103750884694E+05,      /* I = 57 */
(PID.TID 0000.0001)                 2.491464083009804E+05,      /* I = 58 */
(PID.TID 0000.0001)                 2.366191866372900E+05,      /* I = 59 */
(PID.TID 0000.0001)                 2.220840793516689E+05,      /* I = 60 */
(PID.TID 0000.0001)                 2.049540475644011E+05,      /* I = 61 */
(PID.TID 0000.0001)                 1.841567262292191E+05,      /* I = 62 */
(PID.TID 0000.0001)                 1.575313246967297E+05,      /* I = 63 */
(PID.TID 0000.0001)     2 @  1.208164497427513E+05,             /* I = 64: 65 */
(PID.TID 0000.0001)                 1.575313246967297E+05,      /* I = 66 */
(PID.TID 0000.0001)                 1.841567262292191E+05,      /* I = 67 */
(PID.TID 0000.0001)                 2.049540475644011E+05,      /* I = 68 */
(PID.TID 0000.0001)                 2.220840793516689E+05,      /* I = 69 */
(PID.TID 0000.0001)                 2.366191866372900E+05,      /* I = 70 */
(PID.TID 0000.0001)                 2.491464083009804E+05,      /* I = 71 */
(PID.TID 0000.0001)                 2.600103750884694E+05,      /* I = 72 */
(PID.TID 0000.0001)                 2.694220899589415E+05,      /* I = 73 */
(PID.TID 0000.0001)                 2.775134021642698E+05,      /* I = 74 */
(PID.TID 0000.0001)                 2.843669426491172E+05,      /* I = 75 */
(PID.TID 0000.0001)                 2.900338631125396E+05,      /* I = 76 */
(PID.TID 0000.0001)                 2.945449914488923E+05,      /* I = 77 */
(PID.TID 0000.0001)                 2.979181490241748E+05,      /* I = 78 */
(PID.TID 0000.0001)                 3.001630475443809E+05,      /* I = 79 */
(PID.TID 0000.0001)     2 @  3.012845239852109E+05,             /* I = 80: 81 */
(PID.TID 0000.0001)                 3.001630475443809E+05,      /* I = 82 */
(PID.TID 0000.0001)                 2.979181490241748E+05,      /* I = 83 */
(PID.TID 0000.0001)                 2.945449914488923E+05,      /* I = 84 */
(PID.TID 0000.0001)                 2.900338631125396E+05,      /* I = 85 */
(PID.TID 0000.0001)                 2.843669426491172E+05,      /* I = 86 */
(PID.TID 0000.0001)                 2.775134021642698E+05,      /* I = 87 */
(PID.TID 0000.0001)                 2.694220899589415E+05,      /* I = 88 */
(PID.TID 0000.0001)                 2.600103750884694E+05,      /* I = 89 */
(PID.TID 0000.0001)                 2.491464083009804E+05,      /* I = 90 */
(PID.TID 0000.0001)                 2.366191866372900E+05,      /* I = 91 */
(PID.TID 0000.0001)                 2.220840793516689E+05,      /* I = 92 */
(PID.TID 0000.0001)                 2.049540475644011E+05,      /* I = 93 */
(PID.TID 0000.0001)                 1.841567262292191E+05,      /* I = 94 */
(PID.TID 0000.0001)                 1.575313246967297E+05,      /* I = 95 */
(PID.TID 0000.0001)     2 @  1.208164497427513E+05,             /* I = 96: 97 */
(PID.TID 0000.0001)                 1.575313246967297E+05,      /* I = 98 */
(PID.TID 0000.0001)                 1.841567262292191E+05,      /* I = 99 */
(PID.TID 0000.0001)                 2.049540475644011E+05,      /* I =100 */
(PID.TID 0000.0001)                 2.220840793516689E+05,      /* I =101 */
(PID.TID 0000.0001)                 2.366191866372900E+05,      /* I =102 */
(PID.TID 0000.0001)                 2.491464083009804E+05,      /* I =103 */
(PID.TID 0000.0001)                 2.600103750884694E+05,      /* I =104 */
(PID.TID 0000.0001)                 2.694220899589415E+05,      /* I =105 */
(PID.TID 0000.0001)                 2.775134021642698E+05,      /* I =106 */
(PID.TID 0000.0001)                 2.843669426491172E+05,      /* I =107 */
(PID.TID 0000.0001)                 2.900338631125396E+05,      /* I =108 */
(PID.TID 0000.0001)                 2.945449914488923E+05,      /* I =109 */
(PID.TID 0000.0001)                 2.979181490241748E+05,      /* I =110 */
(PID.TID 0000.0001)                 3.001630475443809E+05,      /* I =111 */
(PID.TID 0000.0001)     2 @  3.012845239852109E+05,             /* I =112:113 */
(PID.TID 0000.0001)                 3.001630475443809E+05,      /* I =114 */
(PID.TID 0000.0001)                 2.979181490241748E+05,      /* I =115 */
(PID.TID 0000.0001)                 2.945449914488923E+05,      /* I =116 */
(PID.TID 0000.0001)                 2.900338631125396E+05,      /* I =117 */
(PID.TID 0000.0001)                 2.843669426491172E+05,      /* I =118 */
(PID.TID 0000.0001)                 2.775134021642698E+05,      /* I =119 */
(PID.TID 0000.0001)                 2.694220899589415E+05,      /* I =120 */
(PID.TID 0000.0001)                 2.600103750884694E+05,      /* I =121 */
(PID.TID 0000.0001)                 2.491464083009804E+05,      /* I =122 */
(PID.TID 0000.0001)                 2.366191866372900E+05,      /* I =123 */
(PID.TID 0000.0001)                 2.220840793516689E+05,      /* I =124 */
(PID.TID 0000.0001)                 2.049540475644011E+05,      /* I =125 */
(PID.TID 0000.0001)                 1.841567262292191E+05,      /* I =126 */
(PID.TID 0000.0001)                 1.575313246967297E+05,      /* I =127 */
(PID.TID 0000.0001)     2 @  1.208164497427513E+05,             /* I =128:129 */
(PID.TID 0000.0001)                 1.575313246967297E+05,      /* I =130 */
(PID.TID 0000.0001)                 1.841567262292191E+05,      /* I =131 */
(PID.TID 0000.0001)                 2.049540475644011E+05,      /* I =132 */
(PID.TID 0000.0001)                 2.220840793516689E+05,      /* I =133 */
(PID.TID 0000.0001)                 2.366191866372900E+05,      /* I =134 */
(PID.TID 0000.0001)                 2.491464083009804E+05,      /* I =135 */
(PID.TID 0000.0001)                 2.600103750884694E+05,      /* I =136 */
(PID.TID 0000.0001)                 2.694220899589415E+05,      /* I =137 */
(PID.TID 0000.0001)                 2.775134021642698E+05,      /* I =138 */
(PID.TID 0000.0001)                 2.843669426491172E+05,      /* I =139 */
(PID.TID 0000.0001)                 2.900338631125396E+05,      /* I =140 */
(PID.TID 0000.0001)                 2.945449914488923E+05,      /* I =141 */
(PID.TID 0000.0001)                 2.979181490241748E+05,      /* I =142 */
(PID.TID 0000.0001)                 3.001630475443809E+05,      /* I =143 */
(PID.TID 0000.0001)     2 @  3.012845239852109E+05,             /* I =144:145 */
(PID.TID 0000.0001)                 3.001630475443809E+05,      /* I =146 */
(PID.TID 0000.0001)                 2.979181490241748E+05,      /* I =147 */
(PID.TID 0000.0001)                 2.945449914488923E+05,      /* I =148 */
(PID.TID 0000.0001)                 2.900338631125396E+05,      /* I =149 */
(PID.TID 0000.0001)                 2.843669426491172E+05,      /* I =150 */
(PID.TID 0000.0001)                 2.775134021642698E+05,      /* I =151 */
(PID.TID 0000.0001)                 2.694220899589415E+05,      /* I =152 */
(PID.TID 0000.0001)                 2.600103750884694E+05,      /* I =153 */
(PID.TID 0000.0001)                 2.491464083009804E+05,      /* I =154 */
(PID.TID 0000.0001)                 2.366191866372900E+05,      /* I =155 */
(PID.TID 0000.0001)                 2.220840793516689E+05,      /* I =156 */
(PID.TID 0000.0001)                 2.049540475644011E+05,      /* I =157 */
(PID.TID 0000.0001)                 1.841567262292191E+05,      /* I =158 */
(PID.TID 0000.0001)                 1.575313246967297E+05,      /* I =159 */
(PID.TID 0000.0001)     2 @  1.208164497427513E+05,             /* I =160:161 */
(PID.TID 0000.0001)                 1.575313246967297E+05,      /* I =162 */
(PID.TID 0000.0001)                 1.841567262292191E+05,      /* I =163 */
(PID.TID 0000.0001)                 2.049540475644011E+05,      /* I =164 */
(PID.TID 0000.0001)                 2.220840793516689E+05,      /* I =165 */
(PID.TID 0000.0001)                 2.366191866372900E+05,      /* I =166 */
(PID.TID 0000.0001)                 2.491464083009804E+05,      /* I =167 */
(PID.TID 0000.0001)                 2.600103750884694E+05,      /* I =168 */
(PID.TID 0000.0001)                 2.694220899589415E+05,      /* I =169 */
(PID.TID 0000.0001)                 2.775134021642698E+05,      /* I =170 */
(PID.TID 0000.0001)                 2.843669426491172E+05,      /* I =171 */
(PID.TID 0000.0001)                 2.900338631125396E+05,      /* I =172 */
(PID.TID 0000.0001)                 2.945449914488923E+05,      /* I =173 */
(PID.TID 0000.0001)                 2.979181490241748E+05,      /* I =174 */
(PID.TID 0000.0001)                 3.001630475443809E+05,      /* I =175 */
(PID.TID 0000.0001)     2 @  3.012845239852109E+05,             /* I =176:177 */
(PID.TID 0000.0001)                 3.001630475443809E+05,      /* I =178 */
(PID.TID 0000.0001)                 2.979181490241748E+05,      /* I =179 */
(PID.TID 0000.0001)                 2.945449914488923E+05,      /* I =180 */
(PID.TID 0000.0001)                 2.900338631125396E+05,      /* I =181 */
(PID.TID 0000.0001)                 2.843669426491172E+05,      /* I =182 */
(PID.TID 0000.0001)                 2.775134021642698E+05,      /* I =183 */
(PID.TID 0000.0001)                 2.694220899589415E+05,      /* I =184 */
(PID.TID 0000.0001)                 2.600103750884694E+05,      /* I =185 */
(PID.TID 0000.0001)                 2.491464083009804E+05,      /* I =186 */
(PID.TID 0000.0001)                 2.366191866372900E+05,      /* I =187 */
(PID.TID 0000.0001)                 2.220840793516689E+05,      /* I =188 */
(PID.TID 0000.0001)                 2.049540475644011E+05,      /* I =189 */
(PID.TID 0000.0001)                 1.841567262292191E+05,      /* I =190 */
(PID.TID 0000.0001)                 1.575313246967297E+05,      /* I =191 */
(PID.TID 0000.0001)                 1.208164497427513E+05       /* I =192 */
(PID.TID 0000.0001)     ;
(PID.TID 0000.0001) dyF =  /* dyF(1,:,1,:) ( m - cartesian, degrees - spherical ) */
(PID.TID 0000.0001)                 1.208164497427513E+05,      /* J =  1 */
(PID.TID 0000.0001)                 1.563893108133410E+05,      /* J =  2 */
(PID.TID 0000.0001)                 1.835578660170750E+05,      /* J =  3 */
(PID.TID 0000.0001)                 2.045897643777963E+05,      /* J =  4 */
(PID.TID 0000.0001)                 2.218355892332067E+05,      /* J =  5 */
(PID.TID 0000.0001)                 2.364355578808568E+05,      /* J =  6 */
(PID.TID 0000.0001)                 2.490024063194764E+05,      /* J =  7 */
(PID.TID 0000.0001)                 2.598920493028891E+05,      /* J =  8 */
(PID.TID 0000.0001)                 2.693210711270105E+05,      /* J =  9 */
(PID.TID 0000.0001)                 2.774243477569765E+05,      /* J = 10 */
(PID.TID 0000.0001)                 2.842862732306662E+05,      /* J = 11 */
(PID.TID 0000.0001)                 2.899590841291803E+05,      /* J = 12 */
(PID.TID 0000.0001)                 2.944743020883619E+05,      /* J = 13 */
(PID.TID 0000.0001)                 2.978502004615897E+05,      /* J = 14 */
(PID.TID 0000.0001)                 3.000967821328745E+05,      /* J = 15 */
(PID.TID 0000.0001)     2 @  3.012191048042373E+05,             /* J = 16: 17 */
(PID.TID 0000.0001)                 3.000967821328745E+05,      /* J = 18 */
(PID.TID 0000.0001)                 2.978502004615897E+05,      /* J = 19 */
(PID.TID 0000.0001)                 2.944743020883619E+05,      /* J = 20 */
(PID.TID 0000.0001)                 2.899590841291803E+05,      /* J = 21 */
(PID.TID 0000.0001)                 2.842862732306662E+05,      /* J = 22 */
(PID.TID 0000.0001)                 2.774243477569765E+05,      /* J = 23 */
(PID.TID 0000.0001)                 2.693210711270105E+05,      /* J = 24 */
(PID.TID 0000.0001)                 2.598920493028891E+05,      /* J = 25 */
(PID.TID 0000.0001)                 2.490024063194764E+05,      /* J = 26 */
(PID.TID 0000.0001)                 2.364355578808568E+05,      /* J = 27 */
(PID.TID 0000.0001)                 2.218355892332067E+05,      /* J = 28 */
(PID.TID 0000.0001)                 2.045897643777963E+05,      /* J = 29 */
(PID.TID 0000.0001)                 1.835578660170750E+05,      /* J = 30 */
(PID.TID 0000.0001)                 1.563893108133410E+05,      /* J = 31 */
(PID.TID 0000.0001)                 1.208164497427513E+05       /* J = 32 */
(PID.TID 0000.0001)     ;
(PID.TID 0000.0001) dxG =  /* dxG(:,1,:,1) ( m - cartesian, degrees - spherical ) */
(PID.TID 0000.0001)                 1.009837800876375E+05,      /* I =  1 */
(PID.TID 0000.0001)                 1.534505834328235E+05,      /* I =  2 */
(PID.TID 0000.0001)                 1.823321598768767E+05,      /* I =  3 */
(PID.TID 0000.0001)                 2.038999045534966E+05,      /* I =  4 */
(PID.TID 0000.0001)                 2.213884732245322E+05,      /* I =  5 */
(PID.TID 0000.0001)                 2.361211699597717E+05,      /* I =  6 */
(PID.TID 0000.0001)                 2.487693460284765E+05,      /* I =  7 */
(PID.TID 0000.0001)                 2.597126963772656E+05,      /* I =  8 */
(PID.TID 0000.0001)                 2.691790288992463E+05,      /* I =  9 */
(PID.TID 0000.0001)                 2.773091043276745E+05,      /* I = 10 */
(PID.TID 0000.0001)                 2.841906470084194E+05,      /* I = 11 */
(PID.TID 0000.0001)                 2.898778860929699E+05,      /* I = 12 */
(PID.TID 0000.0001)                 2.944035815524881E+05,      /* I = 13 */
(PID.TID 0000.0001)                 2.977867909041198E+05,      /* I = 14 */
(PID.TID 0000.0001)                 3.000380090330449E+05,      /* I = 15 */
(PID.TID 0000.0001)     2 @  3.011625828701227E+05,             /* I = 16: 17 */
(PID.TID 0000.0001)                 3.000380090330449E+05,      /* I = 18 */
(PID.TID 0000.0001)                 2.977867909041198E+05,      /* I = 19 */
(PID.TID 0000.0001)                 2.944035815524881E+05,      /* I = 20 */
(PID.TID 0000.0001)                 2.898778860929699E+05,      /* I = 21 */
(PID.TID 0000.0001)                 2.841906470084194E+05,      /* I = 22 */
(PID.TID 0000.0001)                 2.773091043276745E+05,      /* I = 23 */
(PID.TID 0000.0001)                 2.691790288992463E+05,      /* I = 24 */
(PID.TID 0000.0001)                 2.597126963772656E+05,      /* I = 25 */
(PID.TID 0000.0001)                 2.487693460284765E+05,      /* I = 26 */
(PID.TID 0000.0001)                 2.361211699597717E+05,      /* I = 27 */
(PID.TID 0000.0001)                 2.213884732245322E+05,      /* I = 28 */
(PID.TID 0000.0001)                 2.038999045534966E+05,      /* I = 29 */
(PID.TID 0000.0001)                 1.823321598768767E+05,      /* I = 30 */
(PID.TID 0000.0001)                 1.534505834328235E+05,      /* I = 31 */
(PID.TID 0000.0001)     2 @  1.009837800876375E+05,             /* I = 32: 33 */
(PID.TID 0000.0001)                 1.534505834328235E+05,      /* I = 34 */
(PID.TID 0000.0001)                 1.823321598768767E+05,      /* I = 35 */
(PID.TID 0000.0001)                 2.038999045534966E+05,      /* I = 36 */
(PID.TID 0000.0001)                 2.213884732245322E+05,      /* I = 37 */
(PID.TID 0000.0001)                 2.361211699597717E+05,      /* I = 38 */
(PID.TID 0000.0001)                 2.487693460284765E+05,      /* I = 39 */
(PID.TID 0000.0001)                 2.597126963772656E+05,      /* I = 40 */
(PID.TID 0000.0001)                 2.691790288992463E+05,      /* I = 41 */
(PID.TID 0000.0001)                 2.773091043276745E+05,      /* I = 42 */
(PID.TID 0000.0001)                 2.841906470084194E+05,      /* I = 43 */
(PID.TID 0000.0001)                 2.898778860929699E+05,      /* I = 44 */
(PID.TID 0000.0001)                 2.944035815524881E+05,      /* I = 45 */
(PID.TID 0000.0001)                 2.977867909041198E+05,      /* I = 46 */
(PID.TID 0000.0001)                 3.000380090330449E+05,      /* I = 47 */
(PID.TID 0000.0001)     2 @  3.011625828701227E+05,             /* I = 48: 49 */
(PID.TID 0000.0001)                 3.000380090330449E+05,      /* I = 50 */
(PID.TID 0000.0001)                 2.977867909041198E+05,      /* I = 51 */
(PID.TID 0000.0001)                 2.944035815524881E+05,      /* I = 52 */
(PID.TID 0000.0001)                 2.898778860929699E+05,      /* I = 53 */
(PID.TID 0000.0001)                 2.841906470084194E+05,      /* I = 54 */
(PID.TID 0000.0001)                 2.773091043276745E+05,      /* I = 55 */
(PID.TID 0000.0001)                 2.691790288992463E+05,      /* I = 56 */
(PID.TID 0000.0001)                 2.597126963772656E+05,      /* I = 57 */
(PID.TID 0000.0001)                 2.487693460284765E+05,      /* I = 58 */
(PID.TID 0000.0001)                 2.361211699597717E+05,      /* I = 59 */
(PID.TID 0000.0001)                 2.213884732245322E+05,      /* I = 60 */
(PID.TID 0000.0001)                 2.038999045534966E+05,      /* I = 61 */
(PID.TID 0000.0001)                 1.823321598768767E+05,      /* I = 62 */
(PID.TID 0000.0001)                 1.534505834328235E+05,      /* I = 63 */
(PID.TID 0000.0001)     2 @  1.009837800876375E+05,             /* I = 64: 65 */
(PID.TID 0000.0001)                 1.534505834328235E+05,      /* I = 66 */
(PID.TID 0000.0001)                 1.823321598768767E+05,      /* I = 67 */
(PID.TID 0000.0001)                 2.038999045534966E+05,      /* I = 68 */
(PID.TID 0000.0001)                 2.213884732245322E+05,      /* I = 69 */
(PID.TID 0000.0001)                 2.361211699597717E+05,      /* I = 70 */
(PID.TID 0000.0001)                 2.487693460284765E+05,      /* I = 71 */
(PID.TID 0000.0001)                 2.597126963772656E+05,      /* I = 72 */
(PID.TID 0000.0001)                 2.691790288992463E+05,      /* I = 73 */
(PID.TID 0000.0001)                 2.773091043276745E+05,      /* I = 74 */
(PID.TID 0000.0001)                 2.841906470084194E+05,      /* I = 75 */
(PID.TID 0000.0001)                 2.898778860929699E+05,      /* I = 76 */
(PID.TID 0000.0001)                 2.944035815524881E+05,      /* I = 77 */
(PID.TID 0000.0001)                 2.977867909041198E+05,      /* I = 78 */
(PID.TID 0000.0001)                 3.000380090330449E+05,      /* I = 79 */
(PID.TID 0000.0001)     2 @  3.011625828701227E+05,             /* I = 80: 81 */
(PID.TID 0000.0001)                 3.000380090330449E+05,      /* I = 82 */
(PID.TID 0000.0001)                 2.977867909041198E+05,      /* I = 83 */
(PID.TID 0000.0001)                 2.944035815524881E+05,      /* I = 84 */
(PID.TID 0000.0001)                 2.898778860929699E+05,      /* I = 85 */
(PID.TID 0000.0001)                 2.841906470084194E+05,      /* I = 86 */
(PID.TID 0000.0001)                 2.773091043276745E+05,      /* I = 87 */
(PID.TID 0000.0001)                 2.691790288992463E+05,      /* I = 88 */
(PID.TID 0000.0001)                 2.597126963772656E+05,      /* I = 89 */
(PID.TID 0000.0001)                 2.487693460284765E+05,      /* I = 90 */
(PID.TID 0000.0001)                 2.361211699597717E+05,      /* I = 91 */
(PID.TID 0000.0001)                 2.213884732245322E+05,      /* I = 92 */
(PID.TID 0000.0001)                 2.038999045534966E+05,      /* I = 93 */
(PID.TID 0000.0001)                 1.823321598768767E+05,      /* I = 94 */
(PID.TID 0000.0001)                 1.534505834328235E+05,      /* I = 95 */
(PID.TID 0000.0001)     2 @  1.009837800876375E+05,             /* I = 96: 97 */
(PID.TID 0000.0001)                 1.534505834328235E+05,      /* I = 98 */
(PID.TID 0000.0001)                 1.823321598768767E+05,      /* I = 99 */
(PID.TID 0000.0001)                 2.038999045534966E+05,      /* I =100 */
(PID.TID 0000.0001)                 2.213884732245322E+05,      /* I =101 */
(PID.TID 0000.0001)                 2.361211699597717E+05,      /* I =102 */
(PID.TID 0000.0001)                 2.487693460284765E+05,      /* I =103 */
(PID.TID 0000.0001)                 2.597126963772656E+05,      /* I =104 */
(PID.TID 0000.0001)                 2.691790288992463E+05,      /* I =105 */
(PID.TID 0000.0001)                 2.773091043276745E+05,      /* I =106 */
(PID.TID 0000.0001)                 2.841906470084194E+05,      /* I =107 */
(PID.TID 0000.0001)                 2.898778860929699E+05,      /* I =108 */
(PID.TID 0000.0001)                 2.944035815524881E+05,      /* I =109 */
(PID.TID 0000.0001)                 2.977867909041198E+05,      /* I =110 */
(PID.TID 0000.0001)                 3.000380090330449E+05,      /* I =111 */
(PID.TID 0000.0001)     2 @  3.011625828701227E+05,             /* I =112:113 */
(PID.TID 0000.0001)                 3.000380090330449E+05,      /* I =114 */
(PID.TID 0000.0001)                 2.977867909041198E+05,      /* I =115 */
(PID.TID 0000.0001)                 2.944035815524881E+05,      /* I =116 */
(PID.TID 0000.0001)                 2.898778860929699E+05,      /* I =117 */
(PID.TID 0000.0001)                 2.841906470084194E+05,      /* I =118 */
(PID.TID 0000.0001)                 2.773091043276745E+05,      /* I =119 */
(PID.TID 0000.0001)                 2.691790288992463E+05,      /* I =120 */
(PID.TID 0000.0001)                 2.597126963772656E+05,      /* I =121 */
(PID.TID 0000.0001)                 2.487693460284765E+05,      /* I =122 */
(PID.TID 0000.0001)                 2.361211699597717E+05,      /* I =123 */
(PID.TID 0000.0001)                 2.213884732245322E+05,      /* I =124 */
(PID.TID 0000.0001)                 2.038999045534966E+05,      /* I =125 */
(PID.TID 0000.0001)                 1.823321598768767E+05,      /* I =126 */
(PID.TID 0000.0001)                 1.534505834328235E+05,      /* I =127 */
(PID.TID 0000.0001)     2 @  1.009837800876375E+05,             /* I =128:129 */
(PID.TID 0000.0001)                 1.534505834328235E+05,      /* I =130 */
(PID.TID 0000.0001)                 1.823321598768767E+05,      /* I =131 */
(PID.TID 0000.0001)                 2.038999045534966E+05,      /* I =132 */
(PID.TID 0000.0001)                 2.213884732245322E+05,      /* I =133 */
(PID.TID 0000.0001)                 2.361211699597717E+05,      /* I =134 */
(PID.TID 0000.0001)                 2.487693460284765E+05,      /* I =135 */
(PID.TID 0000.0001)                 2.597126963772656E+05,      /* I =136 */
(PID.TID 0000.0001)                 2.691790288992463E+05,      /* I =137 */
(PID.TID 0000.0001)                 2.773091043276745E+05,      /* I =138 */
(PID.TID 0000.0001)                 2.841906470084194E+05,      /* I =139 */
(PID.TID 0000.0001)                 2.898778860929699E+05,      /* I =140 */
(PID.TID 0000.0001)                 2.944035815524881E+05,      /* I =141 */
(PID.TID 0000.0001)                 2.977867909041198E+05,      /* I =142 */
(PID.TID 0000.0001)                 3.000380090330449E+05,      /* I =143 */
(PID.TID 0000.0001)     2 @  3.011625828701227E+05,             /* I =144:145 */
(PID.TID 0000.0001)                 3.000380090330449E+05,      /* I =146 */
(PID.TID 0000.0001)                 2.977867909041198E+05,      /* I =147 */
(PID.TID 0000.0001)                 2.944035815524881E+05,      /* I =148 */
(PID.TID 0000.0001)                 2.898778860929699E+05,      /* I =149 */
(PID.TID 0000.0001)                 2.841906470084194E+05,      /* I =150 */
(PID.TID 0000.0001)                 2.773091043276745E+05,      /* I =151 */
(PID.TID 0000.0001)                 2.691790288992463E+05,      /* I =152 */
(PID.TID 0000.0001)                 2.597126963772656E+05,      /* I =153 */
(PID.TID 0000.0001)                 2.487693460284765E+05,      /* I =154 */
(PID.TID 0000.0001)                 2.361211699597717E+05,      /* I =155 */
(PID.TID 0000.0001)                 2.213884732245322E+05,      /* I =156 */
(PID.TID 0000.0001)                 2.038999045534966E+05,      /* I =157 */
(PID.TID 0000.0001)                 1.823321598768767E+05,      /* I =158 */
(PID.TID 0000.0001)                 1.534505834328235E+05,      /* I =159 */
(PID.TID 0000.0001)     2 @  1.009837800876375E+05,             /* I =160:161 */
(PID.TID 0000.0001)                 1.534505834328235E+05,      /* I =162 */
(PID.TID 0000.0001)                 1.823321598768767E+05,      /* I =163 */
(PID.TID 0000.0001)                 2.038999045534966E+05,      /* I =164 */
(PID.TID 0000.0001)                 2.213884732245322E+05,      /* I =165 */
(PID.TID 0000.0001)                 2.361211699597717E+05,      /* I =166 */
(PID.TID 0000.0001)                 2.487693460284765E+05,      /* I =167 */
(PID.TID 0000.0001)                 2.597126963772656E+05,      /* I =168 */
(PID.TID 0000.0001)                 2.691790288992463E+05,      /* I =169 */
(PID.TID 0000.0001)                 2.773091043276745E+05,      /* I =170 */
(PID.TID 0000.0001)                 2.841906470084194E+05,      /* I =171 */
(PID.TID 0000.0001)                 2.898778860929699E+05,      /* I =172 */
(PID.TID 0000.0001)                 2.944035815524881E+05,      /* I =173 */
(PID.TID 0000.0001)                 2.977867909041198E+05,      /* I =174 */
(PID.TID 0000.0001)                 3.000380090330449E+05,      /* I =175 */
(PID.TID 0000.0001)     2 @  3.011625828701227E+05,             /* I =176:177 */
(PID.TID 0000.0001)                 3.000380090330449E+05,      /* I =178 */
(PID.TID 0000.0001)                 2.977867909041198E+05,      /* I =179 */
(PID.TID 0000.0001)                 2.944035815524881E+05,      /* I =180 */
(PID.TID 0000.0001)                 2.898778860929699E+05,      /* I =181 */
(PID.TID 0000.0001)                 2.841906470084194E+05,      /* I =182 */
(PID.TID 0000.0001)                 2.773091043276745E+05,      /* I =183 */
(PID.TID 0000.0001)                 2.691790288992463E+05,      /* I =184 */
(PID.TID 0000.0001)                 2.597126963772656E+05,      /* I =185 */
(PID.TID 0000.0001)                 2.487693460284765E+05,      /* I =186 */
(PID.TID 0000.0001)                 2.361211699597717E+05,      /* I =187 */
(PID.TID 0000.0001)                 2.213884732245322E+05,      /* I =188 */
(PID.TID 0000.0001)                 2.038999045534966E+05,      /* I =189 */
(PID.TID 0000.0001)                 1.823321598768767E+05,      /* I =190 */
(PID.TID 0000.0001)                 1.534505834328235E+05,      /* I =191 */
(PID.TID 0000.0001)                 1.009837800876375E+05       /* I =192 */
(PID.TID 0000.0001)     ;
(PID.TID 0000.0001) dxG =  /* dxG(1,:,1,:) ( m - cartesian, degrees - spherical ) */
(PID.TID 0000.0001)                 1.009837800876375E+05,      /* J =  1 */
(PID.TID 0000.0001)                 1.407552890250882E+05,      /* J =  2 */
(PID.TID 0000.0001)                 1.717812465326903E+05,      /* J =  3 */
(PID.TID 0000.0001)                 1.951119926638228E+05,      /* J =  4 */
(PID.TID 0000.0001)                 2.138946594980153E+05,      /* J =  5 */
(PID.TID 0000.0001)                 2.296317501049707E+05,      /* J =  6 */
(PID.TID 0000.0001)                 2.431082149525878E+05,      /* J =  7 */
(PID.TID 0000.0001)                 2.547707820809733E+05,      /* J =  8 */
(PID.TID 0000.0001)                 2.648880983885786E+05,      /* J =  9 */
(PID.TID 0000.0001)                 2.736267278452390E+05,      /* J = 10 */
(PID.TID 0000.0001)                 2.810911133312079E+05,      /* J = 11 */
(PID.TID 0000.0001)                 2.873464273902283E+05,      /* J = 12 */
(PID.TID 0000.0001)                 2.924325494873893E+05,      /* J = 13 */
(PID.TID 0000.0001)                 2.963730642862590E+05,      /* J = 14 */
(PID.TID 0000.0001)                 2.991812427774029E+05,      /* J = 15 */
(PID.TID 0000.0001)                 3.008640399781737E+05,      /* J = 16 */
(PID.TID 0000.0001)                 3.014246674483120E+05,      /* J = 17 */
(PID.TID 0000.0001)                 3.008640399781737E+05,      /* J = 18 */
(PID.TID 0000.0001)                 2.991812427774029E+05,      /* J = 19 */
(PID.TID 0000.0001)                 2.963730642862590E+05,      /* J = 20 */
(PID.TID 0000.0001)                 2.924325494873893E+05,      /* J = 21 */
(PID.TID 0000.0001)                 2.873464273902283E+05,      /* J = 22 */
(PID.TID 0000.0001)                 2.810911133312079E+05,      /* J = 23 */
(PID.TID 0000.0001)                 2.736267278452390E+05,      /* J = 24 */
(PID.TID 0000.0001)                 2.648880983885786E+05,      /* J = 25 */
(PID.TID 0000.0001)                 2.547707820809733E+05,      /* J = 26 */
(PID.TID 0000.0001)                 2.431082149525878E+05,      /* J = 27 */
(PID.TID 0000.0001)                 2.296317501049707E+05,      /* J = 28 */
(PID.TID 0000.0001)                 2.138946594980153E+05,      /* J = 29 */
(PID.TID 0000.0001)                 1.951119926638228E+05,      /* J = 30 */
(PID.TID 0000.0001)                 1.717812465326903E+05,      /* J = 31 */
(PID.TID 0000.0001)                 1.407552890250882E+05       /* J = 32 */
(PID.TID 0000.0001)     ;
(PID.TID 0000.0001) dyG =  /* dyG(:,1,:,1) ( m - cartesian, degrees - spherical ) */
(PID.TID 0000.0001)                 1.009837800876375E+05,      /* I =  1 */
(PID.TID 0000.0001)                 1.407552890250882E+05,      /* I =  2 */
(PID.TID 0000.0001)                 1.717812465326903E+05,      /* I =  3 */
(PID.TID 0000.0001)                 1.951119926638228E+05,      /* I =  4 */
(PID.TID 0000.0001)                 2.138946594980153E+05,      /* I =  5 */
(PID.TID 0000.0001)                 2.296317501049707E+05,      /* I =  6 */
(PID.TID 0000.0001)                 2.431082149525878E+05,      /* I =  7 */
(PID.TID 0000.0001)                 2.547707820809733E+05,      /* I =  8 */
(PID.TID 0000.0001)                 2.648880983885786E+05,      /* I =  9 */
(PID.TID 0000.0001)                 2.736267278452390E+05,      /* I = 10 */
(PID.TID 0000.0001)                 2.810911133312079E+05,      /* I = 11 */
(PID.TID 0000.0001)                 2.873464273902283E+05,      /* I = 12 */
(PID.TID 0000.0001)                 2.924325494873893E+05,      /* I = 13 */
(PID.TID 0000.0001)                 2.963730642862590E+05,      /* I = 14 */
(PID.TID 0000.0001)                 2.991812427774029E+05,      /* I = 15 */
(PID.TID 0000.0001)                 3.008640399781737E+05,      /* I = 16 */
(PID.TID 0000.0001)                 3.014246674483120E+05,      /* I = 17 */
(PID.TID 0000.0001)                 3.008640399781737E+05,      /* I = 18 */
(PID.TID 0000.0001)                 2.991812427774029E+05,      /* I = 19 */
(PID.TID 0000.0001)                 2.963730642862590E+05,      /* I = 20 */
(PID.TID 0000.0001)                 2.924325494873893E+05,      /* I = 21 */
(PID.TID 0000.0001)                 2.873464273902283E+05,      /* I = 22 */
(PID.TID 0000.0001)                 2.810911133312079E+05,      /* I = 23 */
(PID.TID 0000.0001)                 2.736267278452390E+05,      /* I = 24 */
(PID.TID 0000.0001)                 2.648880983885786E+05,      /* I = 25 */
(PID.TID 0000.0001)                 2.547707820809733E+05,      /* I = 26 */
(PID.TID 0000.0001)                 2.431082149525878E+05,      /* I = 27 */
(PID.TID 0000.0001)                 2.296317501049707E+05,      /* I = 28 */
(PID.TID 0000.0001)                 2.138946594980153E+05,      /* I = 29 */
(PID.TID 0000.0001)                 1.951119926638228E+05,      /* I = 30 */
(PID.TID 0000.0001)                 1.717812465326903E+05,      /* I = 31 */
(PID.TID 0000.0001)                 1.407552890250882E+05,      /* I = 32 */
(PID.TID 0000.0001)                 1.009837800876375E+05,      /* I = 33 */
(PID.TID 0000.0001)                 1.407552890250882E+05,      /* I = 34 */
(PID.TID 0000.0001)                 1.717812465326903E+05,      /* I = 35 */
(PID.TID 0000.0001)                 1.951119926638228E+05,      /* I = 36 */
(PID.TID 0000.0001)                 2.138946594980153E+05,      /* I = 37 */
(PID.TID 0000.0001)                 2.296317501049707E+05,      /* I = 38 */
(PID.TID 0000.0001)                 2.431082149525878E+05,      /* I = 39 */
(PID.TID 0000.0001)                 2.547707820809733E+05,      /* I = 40 */
(PID.TID 0000.0001)                 2.648880983885786E+05,      /* I = 41 */
(PID.TID 0000.0001)                 2.736267278452390E+05,      /* I = 42 */
(PID.TID 0000.0001)                 2.810911133312079E+05,      /* I = 43 */
(PID.TID 0000.0001)                 2.873464273902283E+05,      /* I = 44 */
(PID.TID 0000.0001)                 2.924325494873893E+05,      /* I = 45 */
(PID.TID 0000.0001)                 2.963730642862590E+05,      /* I = 46 */
(PID.TID 0000.0001)                 2.991812427774029E+05,      /* I = 47 */
(PID.TID 0000.0001)                 3.008640399781737E+05,      /* I = 48 */
(PID.TID 0000.0001)                 3.014246674483120E+05,      /* I = 49 */
(PID.TID 0000.0001)                 3.008640399781737E+05,      /* I = 50 */
(PID.TID 0000.0001)                 2.991812427774029E+05,      /* I = 51 */
(PID.TID 0000.0001)                 2.963730642862590E+05,      /* I = 52 */
(PID.TID 0000.0001)                 2.924325494873893E+05,      /* I = 53 */
(PID.TID 0000.0001)                 2.873464273902283E+05,      /* I = 54 */
(PID.TID 0000.0001)                 2.810911133312079E+05,      /* I = 55 */
(PID.TID 0000.0001)                 2.736267278452390E+05,      /* I = 56 */
(PID.TID 0000.0001)                 2.648880983885786E+05,      /* I = 57 */
(PID.TID 0000.0001)                 2.547707820809733E+05,      /* I = 58 */
(PID.TID 0000.0001)                 2.431082149525878E+05,      /* I = 59 */
(PID.TID 0000.0001)                 2.296317501049707E+05,      /* I = 60 */
(PID.TID 0000.0001)                 2.138946594980153E+05,      /* I = 61 */
(PID.TID 0000.0001)                 1.951119926638228E+05,      /* I = 62 */
(PID.TID 0000.0001)                 1.717812465326903E+05,      /* I = 63 */
(PID.TID 0000.0001)                 1.407552890250882E+05,      /* I = 64 */
(PID.TID 0000.0001)                 1.009837800876375E+05,      /* I = 65 */
(PID.TID 0000.0001)                 1.407552890250882E+05,      /* I = 66 */
(PID.TID 0000.0001)                 1.717812465326903E+05,      /* I = 67 */
(PID.TID 0000.0001)                 1.951119926638228E+05,      /* I = 68 */
(PID.TID 0000.0001)                 2.138946594980153E+05,      /* I = 69 */
(PID.TID 0000.0001)                 2.296317501049707E+05,      /* I = 70 */
(PID.TID 0000.0001)                 2.431082149525878E+05,      /* I = 71 */
(PID.TID 0000.0001)                 2.547707820809733E+05,      /* I = 72 */
(PID.TID 0000.0001)                 2.648880983885786E+05,      /* I = 73 */
(PID.TID 0000.0001)                 2.736267278452390E+05,      /* I = 74 */
(PID.TID 0000.0001)                 2.810911133312079E+05,      /* I = 75 */
(PID.TID 0000.0001)                 2.873464273902283E+05,      /* I = 76 */
(PID.TID 0000.0001)                 2.924325494873893E+05,      /* I = 77 */
(PID.TID 0000.0001)                 2.963730642862590E+05,      /* I = 78 */
(PID.TID 0000.0001)                 2.991812427774029E+05,      /* I = 79 */
(PID.TID 0000.0001)                 3.008640399781737E+05,      /* I = 80 */
(PID.TID 0000.0001)                 3.014246674483120E+05,      /* I = 81 */
(PID.TID 0000.0001)                 3.008640399781737E+05,      /* I = 82 */
(PID.TID 0000.0001)                 2.991812427774029E+05,      /* I = 83 */
(PID.TID 0000.0001)                 2.963730642862590E+05,      /* I = 84 */
(PID.TID 0000.0001)                 2.924325494873893E+05,      /* I = 85 */
(PID.TID 0000.0001)                 2.873464273902283E+05,      /* I = 86 */
(PID.TID 0000.0001)                 2.810911133312079E+05,      /* I = 87 */
(PID.TID 0000.0001)                 2.736267278452390E+05,      /* I = 88 */
(PID.TID 0000.0001)                 2.648880983885786E+05,      /* I = 89 */
(PID.TID 0000.0001)                 2.547707820809733E+05,      /* I = 90 */
(PID.TID 0000.0001)                 2.431082149525878E+05,      /* I = 91 */
(PID.TID 0000.0001)                 2.296317501049707E+05,      /* I = 92 */
(PID.TID 0000.0001)                 2.138946594980153E+05,      /* I = 93 */
(PID.TID 0000.0001)                 1.951119926638228E+05,      /* I = 94 */
(PID.TID 0000.0001)                 1.717812465326903E+05,      /* I = 95 */
(PID.TID 0000.0001)                 1.407552890250882E+05,      /* I = 96 */
(PID.TID 0000.0001)                 1.009837800876375E+05,      /* I = 97 */
(PID.TID 0000.0001)                 1.407552890250882E+05,      /* I = 98 */
(PID.TID 0000.0001)                 1.717812465326903E+05,      /* I = 99 */
(PID.TID 0000.0001)                 1.951119926638228E+05,      /* I =100 */
(PID.TID 0000.0001)                 2.138946594980153E+05,      /* I =101 */
(PID.TID 0000.0001)                 2.296317501049707E+05,      /* I =102 */
(PID.TID 0000.0001)                 2.431082149525878E+05,      /* I =103 */
(PID.TID 0000.0001)                 2.547707820809733E+05,      /* I =104 */
(PID.TID 0000.0001)                 2.648880983885786E+05,      /* I =105 */
(PID.TID 0000.0001)                 2.736267278452390E+05,      /* I =106 */
(PID.TID 0000.0001)                 2.810911133312079E+05,      /* I =107 */
(PID.TID 0000.0001)                 2.873464273902283E+05,      /* I =108 */
(PID.TID 0000.0001)                 2.924325494873893E+05,      /* I =109 */
(PID.TID 0000.0001)                 2.963730642862590E+05,      /* I =110 */
(PID.TID 0000.0001)                 2.991812427774029E+05,      /* I =111 */
(PID.TID 0000.0001)                 3.008640399781737E+05,      /* I =112 */
(PID.TID 0000.0001)                 3.014246674483120E+05,      /* I =113 */
(PID.TID 0000.0001)                 3.008640399781737E+05,      /* I =114 */
(PID.TID 0000.0001)                 2.991812427774029E+05,      /* I =115 */
(PID.TID 0000.0001)                 2.963730642862590E+05,      /* I =116 */
(PID.TID 0000.0001)                 2.924325494873893E+05,      /* I =117 */
(PID.TID 0000.0001)                 2.873464273902283E+05,      /* I =118 */
(PID.TID 0000.0001)                 2.810911133312079E+05,      /* I =119 */
(PID.TID 0000.0001)                 2.736267278452390E+05,      /* I =120 */
(PID.TID 0000.0001)                 2.648880983885786E+05,      /* I =121 */
(PID.TID 0000.0001)                 2.547707820809733E+05,      /* I =122 */
(PID.TID 0000.0001)                 2.431082149525878E+05,      /* I =123 */
(PID.TID 0000.0001)                 2.296317501049707E+05,      /* I =124 */
(PID.TID 0000.0001)                 2.138946594980153E+05,      /* I =125 */
(PID.TID 0000.0001)                 1.951119926638228E+05,      /* I =126 */
(PID.TID 0000.0001)                 1.717812465326903E+05,      /* I =127 */
(PID.TID 0000.0001)                 1.407552890250882E+05,      /* I =128 */
(PID.TID 0000.0001)                 1.009837800876375E+05,      /* I =129 */
(PID.TID 0000.0001)                 1.407552890250882E+05,      /* I =130 */
(PID.TID 0000.0001)                 1.717812465326903E+05,      /* I =131 */
(PID.TID 0000.0001)                 1.951119926638228E+05,      /* I =132 */
(PID.TID 0000.0001)                 2.138946594980153E+05,      /* I =133 */
(PID.TID 0000.0001)                 2.296317501049707E+05,      /* I =134 */
(PID.TID 0000.0001)                 2.431082149525878E+05,      /* I =135 */
(PID.TID 0000.0001)                 2.547707820809733E+05,      /* I =136 */
(PID.TID 0000.0001)                 2.648880983885786E+05,      /* I =137 */
(PID.TID 0000.0001)                 2.736267278452390E+05,      /* I =138 */
(PID.TID 0000.0001)                 2.810911133312079E+05,      /* I =139 */
(PID.TID 0000.0001)                 2.873464273902283E+05,      /* I =140 */
(PID.TID 0000.0001)                 2.924325494873893E+05,      /* I =141 */
(PID.TID 0000.0001)                 2.963730642862590E+05,      /* I =142 */
(PID.TID 0000.0001)                 2.991812427774029E+05,      /* I =143 */
(PID.TID 0000.0001)                 3.008640399781737E+05,      /* I =144 */
(PID.TID 0000.0001)                 3.014246674483120E+05,      /* I =145 */
(PID.TID 0000.0001)                 3.008640399781737E+05,      /* I =146 */
(PID.TID 0000.0001)                 2.991812427774029E+05,      /* I =147 */
(PID.TID 0000.0001)                 2.963730642862590E+05,      /* I =148 */
(PID.TID 0000.0001)                 2.924325494873893E+05,      /* I =149 */
(PID.TID 0000.0001)                 2.873464273902283E+05,      /* I =150 */
(PID.TID 0000.0001)                 2.810911133312079E+05,      /* I =151 */
(PID.TID 0000.0001)                 2.736267278452390E+05,      /* I =152 */
(PID.TID 0000.0001)                 2.648880983885786E+05,      /* I =153 */
(PID.TID 0000.0001)                 2.547707820809733E+05,      /* I =154 */
(PID.TID 0000.0001)                 2.431082149525878E+05,      /* I =155 */
(PID.TID 0000.0001)                 2.296317501049707E+05,      /* I =156 */
(PID.TID 0000.0001)                 2.138946594980153E+05,      /* I =157 */
(PID.TID 0000.0001)                 1.951119926638228E+05,      /* I =158 */
(PID.TID 0000.0001)                 1.717812465326903E+05,      /* I =159 */
(PID.TID 0000.0001)                 1.407552890250882E+05,      /* I =160 */
(PID.TID 0000.0001)                 1.009837800876375E+05,      /* I =161 */
(PID.TID 0000.0001)                 1.407552890250882E+05,      /* I =162 */
(PID.TID 0000.0001)                 1.717812465326903E+05,      /* I =163 */
(PID.TID 0000.0001)                 1.951119926638228E+05,      /* I =164 */
(PID.TID 0000.0001)                 2.138946594980153E+05,      /* I =165 */
(PID.TID 0000.0001)                 2.296317501049707E+05,      /* I =166 */
(PID.TID 0000.0001)                 2.431082149525878E+05,      /* I =167 */
(PID.TID 0000.0001)                 2.547707820809733E+05,      /* I =168 */
(PID.TID 0000.0001)                 2.648880983885786E+05,      /* I =169 */
(PID.TID 0000.0001)                 2.736267278452390E+05,      /* I =170 */
(PID.TID 0000.0001)                 2.810911133312079E+05,      /* I =171 */
(PID.TID 0000.0001)                 2.873464273902283E+05,      /* I =172 */
(PID.TID 0000.0001)                 2.924325494873893E+05,      /* I =173 */
(PID.TID 0000.0001)                 2.963730642862590E+05,      /* I =174 */
(PID.TID 0000.0001)                 2.991812427774029E+05,      /* I =175 */
(PID.TID 0000.0001)                 3.008640399781737E+05,      /* I =176 */
(PID.TID 0000.0001)                 3.014246674483120E+05,      /* I =177 */
(PID.TID 0000.0001)                 3.008640399781737E+05,      /* I =178 */
(PID.TID 0000.0001)                 2.991812427774029E+05,      /* I =179 */
(PID.TID 0000.0001)                 2.963730642862590E+05,      /* I =180 */
(PID.TID 0000.0001)                 2.924325494873893E+05,      /* I =181 */
(PID.TID 0000.0001)                 2.873464273902283E+05,      /* I =182 */
(PID.TID 0000.0001)                 2.810911133312079E+05,      /* I =183 */
(PID.TID 0000.0001)                 2.736267278452390E+05,      /* I =184 */
(PID.TID 0000.0001)                 2.648880983885786E+05,      /* I =185 */
(PID.TID 0000.0001)                 2.547707820809733E+05,      /* I =186 */
(PID.TID 0000.0001)                 2.431082149525878E+05,      /* I =187 */
(PID.TID 0000.0001)                 2.296317501049707E+05,      /* I =188 */
(PID.TID 0000.0001)                 2.138946594980153E+05,      /* I =189 */
(PID.TID 0000.0001)                 1.951119926638228E+05,      /* I =190 */
(PID.TID 0000.0001)                 1.717812465326903E+05,      /* I =191 */
(PID.TID 0000.0001)                 1.407552890250882E+05       /* I =192 */
(PID.TID 0000.0001)     ;
(PID.TID 0000.0001) dyG =  /* dyG(1,:,1,:) ( m - cartesian, degrees - spherical ) */
(PID.TID 0000.0001)                 1.009837800876375E+05,      /* J =  1 */
(PID.TID 0000.0001)                 1.534505834328235E+05,      /* J =  2 */
(PID.TID 0000.0001)                 1.823321598768767E+05,      /* J =  3 */
(PID.TID 0000.0001)                 2.038999045534966E+05,      /* J =  4 */
(PID.TID 0000.0001)                 2.213884732245322E+05,      /* J =  5 */
(PID.TID 0000.0001)                 2.361211699597717E+05,      /* J =  6 */
(PID.TID 0000.0001)                 2.487693460284765E+05,      /* J =  7 */
(PID.TID 0000.0001)                 2.597126963772656E+05,      /* J =  8 */
(PID.TID 0000.0001)                 2.691790288992463E+05,      /* J =  9 */
(PID.TID 0000.0001)                 2.773091043276745E+05,      /* J = 10 */
(PID.TID 0000.0001)                 2.841906470084194E+05,      /* J = 11 */
(PID.TID 0000.0001)                 2.898778860929699E+05,      /* J = 12 */
(PID.TID 0000.0001)                 2.944035815524881E+05,      /* J = 13 */
(PID.TID 0000.0001)                 2.977867909041198E+05,      /* J = 14 */
(PID.TID 0000.0001)                 3.000380090330449E+05,      /* J = 15 */
(PID.TID 0000.0001)     2 @  3.011625828701227E+05,             /* J = 16: 17 */
(PID.TID 0000.0001)                 3.000380090330449E+05,      /* J = 18 */
(PID.TID 0000.0001)                 2.977867909041198E+05,      /* J = 19 */
(PID.TID 0000.0001)                 2.944035815524881E+05,      /* J = 20 */
(PID.TID 0000.0001)                 2.898778860929699E+05,      /* J = 21 */
(PID.TID 0000.0001)                 2.841906470084194E+05,      /* J = 22 */
(PID.TID 0000.0001)                 2.773091043276745E+05,      /* J = 23 */
(PID.TID 0000.0001)                 2.691790288992463E+05,      /* J = 24 */
(PID.TID 0000.0001)                 2.597126963772656E+05,      /* J = 25 */
(PID.TID 0000.0001)                 2.487693460284765E+05,      /* J = 26 */
(PID.TID 0000.0001)                 2.361211699597717E+05,      /* J = 27 */
(PID.TID 0000.0001)                 2.213884732245322E+05,      /* J = 28 */
(PID.TID 0000.0001)                 2.038999045534966E+05,      /* J = 29 */
(PID.TID 0000.0001)                 1.823321598768767E+05,      /* J = 30 */
(PID.TID 0000.0001)                 1.534505834328235E+05,      /* J = 31 */
(PID.TID 0000.0001)                 1.009837800876375E+05       /* J = 32 */
(PID.TID 0000.0001)     ;
(PID.TID 0000.0001) dxC =  /* dxC(:,1,:,1) ( m - cartesian, degrees - spherical ) */
(PID.TID 0000.0001)                 1.116647132697896E+05,      /* I =  1 */
(PID.TID 0000.0001)                 1.392485553682456E+05,      /* I =  2 */
(PID.TID 0000.0001)                 1.709683577475546E+05,      /* I =  3 */
(PID.TID 0000.0001)                 1.946528689404396E+05,      /* I =  4 */
(PID.TID 0000.0001)                 2.135973104330621E+05,      /* I =  5 */
(PID.TID 0000.0001)                 2.294199397881751E+05,      /* I =  6 */
(PID.TID 0000.0001)                 2.429466556954395E+05,      /* I =  7 */
(PID.TID 0000.0001)                 2.546409301203426E+05,      /* I =  8 */
(PID.TID 0000.0001)                 2.647792433358776E+05,      /* I =  9 */
(PID.TID 0000.0001)                 2.735322281461693E+05,      /* I = 10 */
(PID.TID 0000.0001)                 2.810066194331567E+05,      /* I = 11 */
(PID.TID 0000.0001)                 2.872689646798818E+05,      /* I = 12 */
(PID.TID 0000.0001)                 2.923600076816042E+05,      /* I = 13 */
(PID.TID 0000.0001)                 2.963038926108328E+05,      /* I = 14 */
(PID.TID 0000.0001)                 2.991142546940614E+05,      /* I = 15 */
(PID.TID 0000.0001)                 3.007982779774737E+05,      /* I = 16 */
(PID.TID 0000.0001)                 3.013593922621556E+05,      /* I = 17 */
(PID.TID 0000.0001)                 3.007982779774737E+05,      /* I = 18 */
(PID.TID 0000.0001)                 2.991142546940614E+05,      /* I = 19 */
(PID.TID 0000.0001)                 2.963038926108328E+05,      /* I = 20 */
(PID.TID 0000.0001)                 2.923600076816042E+05,      /* I = 21 */
(PID.TID 0000.0001)                 2.872689646798818E+05,      /* I = 22 */
(PID.TID 0000.0001)                 2.810066194331567E+05,      /* I = 23 */
(PID.TID 0000.0001)                 2.735322281461693E+05,      /* I = 24 */
(PID.TID 0000.0001)                 2.647792433358776E+05,      /* I = 25 */
(PID.TID 0000.0001)                 2.546409301203426E+05,      /* I = 26 */
(PID.TID 0000.0001)                 2.429466556954395E+05,      /* I = 27 */
(PID.TID 0000.0001)                 2.294199397881751E+05,      /* I = 28 */
(PID.TID 0000.0001)                 2.135973104330621E+05,      /* I = 29 */
(PID.TID 0000.0001)                 1.946528689404396E+05,      /* I = 30 */
(PID.TID 0000.0001)                 1.709683577475546E+05,      /* I = 31 */
(PID.TID 0000.0001)                 1.392485553682456E+05,      /* I = 32 */
(PID.TID 0000.0001)                 1.116647132697896E+05,      /* I = 33 */
(PID.TID 0000.0001)                 1.392485553682456E+05,      /* I = 34 */
(PID.TID 0000.0001)                 1.709683577475546E+05,      /* I = 35 */
(PID.TID 0000.0001)                 1.946528689404396E+05,      /* I = 36 */
(PID.TID 0000.0001)                 2.135973104330621E+05,      /* I = 37 */
(PID.TID 0000.0001)                 2.294199397881751E+05,      /* I = 38 */
(PID.TID 0000.0001)                 2.429466556954395E+05,      /* I = 39 */
(PID.TID 0000.0001)                 2.546409301203426E+05,      /* I = 40 */
(PID.TID 0000.0001)                 2.647792433358776E+05,      /* I = 41 */
(PID.TID 0000.0001)                 2.735322281461693E+05,      /* I = 42 */
(PID.TID 0000.0001)                 2.810066194331567E+05,      /* I = 43 */
(PID.TID 0000.0001)                 2.872689646798818E+05,      /* I = 44 */
(PID.TID 0000.0001)                 2.923600076816042E+05,      /* I = 45 */
(PID.TID 0000.0001)                 2.963038926108328E+05,      /* I = 46 */
(PID.TID 0000.0001)                 2.991142546940614E+05,      /* I = 47 */
(PID.TID 0000.0001)                 3.007982779774737E+05,      /* I = 48 */
(PID.TID 0000.0001)                 3.013593922621556E+05,      /* I = 49 */
(PID.TID 0000.0001)                 3.007982779774737E+05,      /* I = 50 */
(PID.TID 0000.0001)                 2.991142546940614E+05,      /* I = 51 */
(PID.TID 0000.0001)                 2.963038926108328E+05,      /* I = 52 */
(PID.TID 0000.0001)                 2.923600076816042E+05,      /* I = 53 */
(PID.TID 0000.0001)                 2.872689646798818E+05,      /* I = 54 */
(PID.TID 0000.0001)                 2.810066194331567E+05,      /* I = 55 */
(PID.TID 0000.0001)                 2.735322281461693E+05,      /* I = 56 */
(PID.TID 0000.0001)                 2.647792433358776E+05,      /* I = 57 */
(PID.TID 0000.0001)                 2.546409301203426E+05,      /* I = 58 */
(PID.TID 0000.0001)                 2.429466556954395E+05,      /* I = 59 */
(PID.TID 0000.0001)                 2.294199397881751E+05,      /* I = 60 */
(PID.TID 0000.0001)                 2.135973104330621E+05,      /* I = 61 */
(PID.TID 0000.0001)                 1.946528689404396E+05,      /* I = 62 */
(PID.TID 0000.0001)                 1.709683577475546E+05,      /* I = 63 */
(PID.TID 0000.0001)                 1.392485553682456E+05,      /* I = 64 */
(PID.TID 0000.0001)                 1.116647132697896E+05,      /* I = 65 */
(PID.TID 0000.0001)                 1.392485553682456E+05,      /* I = 66 */
(PID.TID 0000.0001)                 1.709683577475546E+05,      /* I = 67 */
(PID.TID 0000.0001)                 1.946528689404396E+05,      /* I = 68 */
(PID.TID 0000.0001)                 2.135973104330621E+05,      /* I = 69 */
(PID.TID 0000.0001)                 2.294199397881751E+05,      /* I = 70 */
(PID.TID 0000.0001)                 2.429466556954395E+05,      /* I = 71 */
(PID.TID 0000.0001)                 2.546409301203426E+05,      /* I = 72 */
(PID.TID 0000.0001)                 2.647792433358776E+05,      /* I = 73 */
(PID.TID 0000.0001)                 2.735322281461693E+05,      /* I = 74 */
(PID.TID 0000.0001)                 2.810066194331567E+05,      /* I = 75 */
(PID.TID 0000.0001)                 2.872689646798818E+05,      /* I = 76 */
(PID.TID 0000.0001)                 2.923600076816042E+05,      /* I = 77 */
(PID.TID 0000.0001)                 2.963038926108328E+05,      /* I = 78 */
(PID.TID 0000.0001)                 2.991142546940614E+05,      /* I = 79 */
(PID.TID 0000.0001)                 3.007982779774737E+05,      /* I = 80 */
(PID.TID 0000.0001)                 3.013593922621556E+05,      /* I = 81 */
(PID.TID 0000.0001)                 3.007982779774737E+05,      /* I = 82 */
(PID.TID 0000.0001)                 2.991142546940614E+05,      /* I = 83 */
(PID.TID 0000.0001)                 2.963038926108328E+05,      /* I = 84 */
(PID.TID 0000.0001)                 2.923600076816042E+05,      /* I = 85 */
(PID.TID 0000.0001)                 2.872689646798818E+05,      /* I = 86 */
(PID.TID 0000.0001)                 2.810066194331567E+05,      /* I = 87 */
(PID.TID 0000.0001)                 2.735322281461693E+05,      /* I = 88 */
(PID.TID 0000.0001)                 2.647792433358776E+05,      /* I = 89 */
(PID.TID 0000.0001)                 2.546409301203426E+05,      /* I = 90 */
(PID.TID 0000.0001)                 2.429466556954395E+05,      /* I = 91 */
(PID.TID 0000.0001)                 2.294199397881751E+05,      /* I = 92 */
(PID.TID 0000.0001)                 2.135973104330621E+05,      /* I = 93 */
(PID.TID 0000.0001)                 1.946528689404396E+05,      /* I = 94 */
(PID.TID 0000.0001)                 1.709683577475546E+05,      /* I = 95 */
(PID.TID 0000.0001)                 1.392485553682456E+05,      /* I = 96 */
(PID.TID 0000.0001)                 1.116647132697896E+05,      /* I = 97 */
(PID.TID 0000.0001)                 1.392485553682456E+05,      /* I = 98 */
(PID.TID 0000.0001)                 1.709683577475546E+05,      /* I = 99 */
(PID.TID 0000.0001)                 1.946528689404396E+05,      /* I =100 */
(PID.TID 0000.0001)                 2.135973104330621E+05,      /* I =101 */
(PID.TID 0000.0001)                 2.294199397881751E+05,      /* I =102 */
(PID.TID 0000.0001)                 2.429466556954395E+05,      /* I =103 */
(PID.TID 0000.0001)                 2.546409301203426E+05,      /* I =104 */
(PID.TID 0000.0001)                 2.647792433358776E+05,      /* I =105 */
(PID.TID 0000.0001)                 2.735322281461693E+05,      /* I =106 */
(PID.TID 0000.0001)                 2.810066194331567E+05,      /* I =107 */
(PID.TID 0000.0001)                 2.872689646798818E+05,      /* I =108 */
(PID.TID 0000.0001)                 2.923600076816042E+05,      /* I =109 */
(PID.TID 0000.0001)                 2.963038926108328E+05,      /* I =110 */
(PID.TID 0000.0001)                 2.991142546940614E+05,      /* I =111 */
(PID.TID 0000.0001)                 3.007982779774737E+05,      /* I =112 */
(PID.TID 0000.0001)                 3.013593922621556E+05,      /* I =113 */
(PID.TID 0000.0001)                 3.007982779774737E+05,      /* I =114 */
(PID.TID 0000.0001)                 2.991142546940614E+05,      /* I =115 */
(PID.TID 0000.0001)                 2.963038926108328E+05,      /* I =116 */
(PID.TID 0000.0001)                 2.923600076816042E+05,      /* I =117 */
(PID.TID 0000.0001)                 2.872689646798818E+05,      /* I =118 */
(PID.TID 0000.0001)                 2.810066194331567E+05,      /* I =119 */
(PID.TID 0000.0001)                 2.735322281461693E+05,      /* I =120 */
(PID.TID 0000.0001)                 2.647792433358776E+05,      /* I =121 */
(PID.TID 0000.0001)                 2.546409301203426E+05,      /* I =122 */
(PID.TID 0000.0001)                 2.429466556954395E+05,      /* I =123 */
(PID.TID 0000.0001)                 2.294199397881751E+05,      /* I =124 */
(PID.TID 0000.0001)                 2.135973104330621E+05,      /* I =125 */
(PID.TID 0000.0001)                 1.946528689404396E+05,      /* I =126 */
(PID.TID 0000.0001)                 1.709683577475546E+05,      /* I =127 */
(PID.TID 0000.0001)                 1.392485553682456E+05,      /* I =128 */
(PID.TID 0000.0001)                 1.116647132697896E+05,      /* I =129 */
(PID.TID 0000.0001)                 1.392485553682456E+05,      /* I =130 */
(PID.TID 0000.0001)                 1.709683577475546E+05,      /* I =131 */
(PID.TID 0000.0001)                 1.946528689404396E+05,      /* I =132 */
(PID.TID 0000.0001)                 2.135973104330621E+05,      /* I =133 */
(PID.TID 0000.0001)                 2.294199397881751E+05,      /* I =134 */
(PID.TID 0000.0001)                 2.429466556954395E+05,      /* I =135 */
(PID.TID 0000.0001)                 2.546409301203426E+05,      /* I =136 */
(PID.TID 0000.0001)                 2.647792433358776E+05,      /* I =137 */
(PID.TID 0000.0001)                 2.735322281461693E+05,      /* I =138 */
(PID.TID 0000.0001)                 2.810066194331567E+05,      /* I =139 */
(PID.TID 0000.0001)                 2.872689646798818E+05,      /* I =140 */
(PID.TID 0000.0001)                 2.923600076816042E+05,      /* I =141 */
(PID.TID 0000.0001)                 2.963038926108328E+05,      /* I =142 */
(PID.TID 0000.0001)                 2.991142546940614E+05,      /* I =143 */
(PID.TID 0000.0001)                 3.007982779774737E+05,      /* I =144 */
(PID.TID 0000.0001)                 3.013593922621556E+05,      /* I =145 */
(PID.TID 0000.0001)                 3.007982779774737E+05,      /* I =146 */
(PID.TID 0000.0001)                 2.991142546940614E+05,      /* I =147 */
(PID.TID 0000.0001)                 2.963038926108328E+05,      /* I =148 */
(PID.TID 0000.0001)                 2.923600076816042E+05,      /* I =149 */
(PID.TID 0000.0001)                 2.872689646798818E+05,      /* I =150 */
(PID.TID 0000.0001)                 2.810066194331567E+05,      /* I =151 */
(PID.TID 0000.0001)                 2.735322281461693E+05,      /* I =152 */
(PID.TID 0000.0001)                 2.647792433358776E+05,      /* I =153 */
(PID.TID 0000.0001)                 2.546409301203426E+05,      /* I =154 */
(PID.TID 0000.0001)                 2.429466556954395E+05,      /* I =155 */
(PID.TID 0000.0001)                 2.294199397881751E+05,      /* I =156 */
(PID.TID 0000.0001)                 2.135973104330621E+05,      /* I =157 */
(PID.TID 0000.0001)                 1.946528689404396E+05,      /* I =158 */
(PID.TID 0000.0001)                 1.709683577475546E+05,      /* I =159 */
(PID.TID 0000.0001)                 1.392485553682456E+05,      /* I =160 */
(PID.TID 0000.0001)                 1.116647132697896E+05,      /* I =161 */
(PID.TID 0000.0001)                 1.392485553682456E+05,      /* I =162 */
(PID.TID 0000.0001)                 1.709683577475546E+05,      /* I =163 */
(PID.TID 0000.0001)                 1.946528689404396E+05,      /* I =164 */
(PID.TID 0000.0001)                 2.135973104330621E+05,      /* I =165 */
(PID.TID 0000.0001)                 2.294199397881751E+05,      /* I =166 */
(PID.TID 0000.0001)                 2.429466556954395E+05,      /* I =167 */
(PID.TID 0000.0001)                 2.546409301203426E+05,      /* I =168 */
(PID.TID 0000.0001)                 2.647792433358776E+05,      /* I =169 */
(PID.TID 0000.0001)                 2.735322281461693E+05,      /* I =170 */
(PID.TID 0000.0001)                 2.810066194331567E+05,      /* I =171 */
(PID.TID 0000.0001)                 2.872689646798818E+05,      /* I =172 */
(PID.TID 0000.0001)                 2.923600076816042E+05,      /* I =173 */
(PID.TID 0000.0001)                 2.963038926108328E+05,      /* I =174 */
(PID.TID 0000.0001)                 2.991142546940614E+05,      /* I =175 */
(PID.TID 0000.0001)                 3.007982779774737E+05,      /* I =176 */
(PID.TID 0000.0001)                 3.013593922621556E+05,      /* I =177 */
(PID.TID 0000.0001)                 3.007982779774737E+05,      /* I =178 */
(PID.TID 0000.0001)                 2.991142546940614E+05,      /* I =179 */
(PID.TID 0000.0001)                 2.963038926108328E+05,      /* I =180 */
(PID.TID 0000.0001)                 2.923600076816042E+05,      /* I =181 */
(PID.TID 0000.0001)                 2.872689646798818E+05,      /* I =182 */
(PID.TID 0000.0001)                 2.810066194331567E+05,      /* I =183 */
(PID.TID 0000.0001)                 2.735322281461693E+05,      /* I =184 */
(PID.TID 0000.0001)                 2.647792433358776E+05,      /* I =185 */
(PID.TID 0000.0001)                 2.546409301203426E+05,      /* I =186 */
(PID.TID 0000.0001)                 2.429466556954395E+05,      /* I =187 */
(PID.TID 0000.0001)                 2.294199397881751E+05,      /* I =188 */
(PID.TID 0000.0001)                 2.135973104330621E+05,      /* I =189 */
(PID.TID 0000.0001)                 1.946528689404396E+05,      /* I =190 */
(PID.TID 0000.0001)                 1.709683577475546E+05,      /* I =191 */
(PID.TID 0000.0001)                 1.392485553682456E+05       /* I =192 */
(PID.TID 0000.0001)     ;
(PID.TID 0000.0001) dxC =  /* dxC(1,:,1,:) ( m - cartesian, degrees - spherical ) */
(PID.TID 0000.0001)                 1.116647132697896E+05,      /* J =  1 */
(PID.TID 0000.0001)                 1.550106351852402E+05,      /* J =  2 */
(PID.TID 0000.0001)                 1.830023121140663E+05,      /* J =  3 */
(PID.TID 0000.0001)                 2.042856638159274E+05,      /* J =  4 */
(PID.TID 0000.0001)                 2.216456717009910E+05,      /* J =  5 */
(PID.TID 0000.0001)                 2.363090373286453E+05,      /* J =  6 */
(PID.TID 0000.0001)                 2.489156845159615E+05,      /* J =  7 */
(PID.TID 0000.0001)                 2.598324334431715E+05,      /* J =  8 */
(PID.TID 0000.0001)                 2.692809632393803E+05,      /* J =  9 */
(PID.TID 0000.0001)                 2.773987887547638E+05,      /* J = 10 */
(PID.TID 0000.0001)                 2.842717730650770E+05,      /* J = 11 */
(PID.TID 0000.0001)                 2.899530125269320E+05,      /* J = 12 */
(PID.TID 0000.0001)                 2.944745484118126E+05,      /* J = 13 */
(PID.TID 0000.0001)                 2.978549726442448E+05,      /* J = 14 */
(PID.TID 0000.0001)                 3.001044813731514E+05,      /* J = 15 */
(PID.TID 0000.0001)     2 @  3.012281967256333E+05,             /* J = 16: 17 */
(PID.TID 0000.0001)                 3.001044813731514E+05,      /* J = 18 */
(PID.TID 0000.0001)                 2.978549726442448E+05,      /* J = 19 */
(PID.TID 0000.0001)                 2.944745484118126E+05,      /* J = 20 */
(PID.TID 0000.0001)                 2.899530125269320E+05,      /* J = 21 */
(PID.TID 0000.0001)                 2.842717730650770E+05,      /* J = 22 */
(PID.TID 0000.0001)                 2.773987887547638E+05,      /* J = 23 */
(PID.TID 0000.0001)                 2.692809632393803E+05,      /* J = 24 */
(PID.TID 0000.0001)                 2.598324334431715E+05,      /* J = 25 */
(PID.TID 0000.0001)                 2.489156845159615E+05,      /* J = 26 */
(PID.TID 0000.0001)                 2.363090373286453E+05,      /* J = 27 */
(PID.TID 0000.0001)                 2.216456717009910E+05,      /* J = 28 */
(PID.TID 0000.0001)                 2.042856638159274E+05,      /* J = 29 */
(PID.TID 0000.0001)                 1.830023121140663E+05,      /* J = 30 */
(PID.TID 0000.0001)                 1.550106351852402E+05,      /* J = 31 */
(PID.TID 0000.0001)                 1.116647132697896E+05       /* J = 32 */
(PID.TID 0000.0001)     ;
(PID.TID 0000.0001) dyC =  /* dyC(:,1,:,1) ( m - cartesian, degrees - spherical ) */
(PID.TID 0000.0001)                 1.116647132697896E+05,      /* I =  1 */
(PID.TID 0000.0001)                 1.550106351852402E+05,      /* I =  2 */
(PID.TID 0000.0001)                 1.830023121140663E+05,      /* I =  3 */
(PID.TID 0000.0001)                 2.042856638159274E+05,      /* I =  4 */
(PID.TID 0000.0001)                 2.216456717009910E+05,      /* I =  5 */
(PID.TID 0000.0001)                 2.363090373286453E+05,      /* I =  6 */
(PID.TID 0000.0001)                 2.489156845159615E+05,      /* I =  7 */
(PID.TID 0000.0001)                 2.598324334431715E+05,      /* I =  8 */
(PID.TID 0000.0001)                 2.692809632393803E+05,      /* I =  9 */
(PID.TID 0000.0001)                 2.773987887547638E+05,      /* I = 10 */
(PID.TID 0000.0001)                 2.842717730650770E+05,      /* I = 11 */
(PID.TID 0000.0001)                 2.899530125269320E+05,      /* I = 12 */
(PID.TID 0000.0001)                 2.944745484118126E+05,      /* I = 13 */
(PID.TID 0000.0001)                 2.978549726442448E+05,      /* I = 14 */
(PID.TID 0000.0001)                 3.001044813731514E+05,      /* I = 15 */
(PID.TID 0000.0001)     2 @  3.012281967256333E+05,             /* I = 16: 17 */
(PID.TID 0000.0001)                 3.001044813731514E+05,      /* I = 18 */
(PID.TID 0000.0001)                 2.978549726442448E+05,      /* I = 19 */
(PID.TID 0000.0001)                 2.944745484118126E+05,      /* I = 20 */
(PID.TID 0000.0001)                 2.899530125269320E+05,      /* I = 21 */
(PID.TID 0000.0001)                 2.842717730650770E+05,      /* I = 22 */
(PID.TID 0000.0001)                 2.773987887547638E+05,      /* I = 23 */
(PID.TID 0000.0001)                 2.692809632393803E+05,      /* I = 24 */
(PID.TID 0000.0001)                 2.598324334431715E+05,      /* I = 25 */
(PID.TID 0000.0001)                 2.489156845159615E+05,      /* I = 26 */
(PID.TID 0000.0001)                 2.363090373286453E+05,      /* I = 27 */
(PID.TID 0000.0001)                 2.216456717009910E+05,      /* I = 28 */
(PID.TID 0000.0001)                 2.042856638159274E+05,      /* I = 29 */
(PID.TID 0000.0001)                 1.830023121140663E+05,      /* I = 30 */
(PID.TID 0000.0001)                 1.550106351852402E+05,      /* I = 31 */
(PID.TID 0000.0001)     2 @  1.116647132697896E+05,             /* I = 32: 33 */
(PID.TID 0000.0001)                 1.550106351852402E+05,      /* I = 34 */
(PID.TID 0000.0001)                 1.830023121140663E+05,      /* I = 35 */
(PID.TID 0000.0001)                 2.042856638159274E+05,      /* I = 36 */
(PID.TID 0000.0001)                 2.216456717009910E+05,      /* I = 37 */
(PID.TID 0000.0001)                 2.363090373286453E+05,      /* I = 38 */
(PID.TID 0000.0001)                 2.489156845159615E+05,      /* I = 39 */
(PID.TID 0000.0001)                 2.598324334431715E+05,      /* I = 40 */
(PID.TID 0000.0001)                 2.692809632393803E+05,      /* I = 41 */
(PID.TID 0000.0001)                 2.773987887547638E+05,      /* I = 42 */
(PID.TID 0000.0001)                 2.842717730650770E+05,      /* I = 43 */
(PID.TID 0000.0001)                 2.899530125269320E+05,      /* I = 44 */
(PID.TID 0000.0001)                 2.944745484118126E+05,      /* I = 45 */
(PID.TID 0000.0001)                 2.978549726442448E+05,      /* I = 46 */
(PID.TID 0000.0001)                 3.001044813731514E+05,      /* I = 47 */
(PID.TID 0000.0001)     2 @  3.012281967256333E+05,             /* I = 48: 49 */
(PID.TID 0000.0001)                 3.001044813731514E+05,      /* I = 50 */
(PID.TID 0000.0001)                 2.978549726442448E+05,      /* I = 51 */
(PID.TID 0000.0001)                 2.944745484118126E+05,      /* I = 52 */
(PID.TID 0000.0001)                 2.899530125269320E+05,      /* I = 53 */
(PID.TID 0000.0001)                 2.842717730650770E+05,      /* I = 54 */
(PID.TID 0000.0001)                 2.773987887547638E+05,      /* I = 55 */
(PID.TID 0000.0001)                 2.692809632393803E+05,      /* I = 56 */
(PID.TID 0000.0001)                 2.598324334431715E+05,      /* I = 57 */
(PID.TID 0000.0001)                 2.489156845159615E+05,      /* I = 58 */
(PID.TID 0000.0001)                 2.363090373286453E+05,      /* I = 59 */
(PID.TID 0000.0001)                 2.216456717009910E+05,      /* I = 60 */
(PID.TID 0000.0001)                 2.042856638159274E+05,      /* I = 61 */
(PID.TID 0000.0001)                 1.830023121140663E+05,      /* I = 62 */
(PID.TID 0000.0001)                 1.550106351852402E+05,      /* I = 63 */
(PID.TID 0000.0001)     2 @  1.116647132697896E+05,             /* I = 64: 65 */
(PID.TID 0000.0001)                 1.550106351852402E+05,      /* I = 66 */
(PID.TID 0000.0001)                 1.830023121140663E+05,      /* I = 67 */
(PID.TID 0000.0001)                 2.042856638159274E+05,      /* I = 68 */
(PID.TID 0000.0001)                 2.216456717009910E+05,      /* I = 69 */
(PID.TID 0000.0001)                 2.363090373286453E+05,      /* I = 70 */
(PID.TID 0000.0001)                 2.489156845159615E+05,      /* I = 71 */
(PID.TID 0000.0001)                 2.598324334431715E+05,      /* I = 72 */
(PID.TID 0000.0001)                 2.692809632393803E+05,      /* I = 73 */
(PID.TID 0000.0001)                 2.773987887547638E+05,      /* I = 74 */
(PID.TID 0000.0001)                 2.842717730650770E+05,      /* I = 75 */
(PID.TID 0000.0001)                 2.899530125269320E+05,      /* I = 76 */
(PID.TID 0000.0001)                 2.944745484118126E+05,      /* I = 77 */
(PID.TID 0000.0001)                 2.978549726442448E+05,      /* I = 78 */
(PID.TID 0000.0001)                 3.001044813731514E+05,      /* I = 79 */
(PID.TID 0000.0001)     2 @  3.012281967256333E+05,             /* I = 80: 81 */
(PID.TID 0000.0001)                 3.001044813731514E+05,      /* I = 82 */
(PID.TID 0000.0001)                 2.978549726442448E+05,      /* I = 83 */
(PID.TID 0000.0001)                 2.944745484118126E+05,      /* I = 84 */
(PID.TID 0000.0001)                 2.899530125269320E+05,      /* I = 85 */
(PID.TID 0000.0001)                 2.842717730650770E+05,      /* I = 86 */
(PID.TID 0000.0001)                 2.773987887547638E+05,      /* I = 87 */
(PID.TID 0000.0001)                 2.692809632393803E+05,      /* I = 88 */
(PID.TID 0000.0001)                 2.598324334431715E+05,      /* I = 89 */
(PID.TID 0000.0001)                 2.489156845159615E+05,      /* I = 90 */
(PID.TID 0000.0001)                 2.363090373286453E+05,      /* I = 91 */
(PID.TID 0000.0001)                 2.216456717009910E+05,      /* I = 92 */
(PID.TID 0000.0001)                 2.042856638159274E+05,      /* I = 93 */
(PID.TID 0000.0001)                 1.830023121140663E+05,      /* I = 94 */
(PID.TID 0000.0001)                 1.550106351852402E+05,      /* I = 95 */
(PID.TID 0000.0001)     2 @  1.116647132697896E+05,             /* I = 96: 97 */
(PID.TID 0000.0001)                 1.550106351852402E+05,      /* I = 98 */
(PID.TID 0000.0001)                 1.830023121140663E+05,      /* I = 99 */
(PID.TID 0000.0001)                 2.042856638159274E+05,      /* I =100 */
(PID.TID 0000.0001)                 2.216456717009910E+05,      /* I =101 */
(PID.TID 0000.0001)                 2.363090373286453E+05,      /* I =102 */
(PID.TID 0000.0001)                 2.489156845159615E+05,      /* I =103 */
(PID.TID 0000.0001)                 2.598324334431715E+05,      /* I =104 */
(PID.TID 0000.0001)                 2.692809632393803E+05,      /* I =105 */
(PID.TID 0000.0001)                 2.773987887547638E+05,      /* I =106 */
(PID.TID 0000.0001)                 2.842717730650770E+05,      /* I =107 */
(PID.TID 0000.0001)                 2.899530125269320E+05,      /* I =108 */
(PID.TID 0000.0001)                 2.944745484118126E+05,      /* I =109 */
(PID.TID 0000.0001)                 2.978549726442448E+05,      /* I =110 */
(PID.TID 0000.0001)                 3.001044813731514E+05,      /* I =111 */
(PID.TID 0000.0001)     2 @  3.012281967256333E+05,             /* I =112:113 */
(PID.TID 0000.0001)                 3.001044813731514E+05,      /* I =114 */
(PID.TID 0000.0001)                 2.978549726442448E+05,      /* I =115 */
(PID.TID 0000.0001)                 2.944745484118126E+05,      /* I =116 */
(PID.TID 0000.0001)                 2.899530125269320E+05,      /* I =117 */
(PID.TID 0000.0001)                 2.842717730650770E+05,      /* I =118 */
(PID.TID 0000.0001)                 2.773987887547638E+05,      /* I =119 */
(PID.TID 0000.0001)                 2.692809632393803E+05,      /* I =120 */
(PID.TID 0000.0001)                 2.598324334431715E+05,      /* I =121 */
(PID.TID 0000.0001)                 2.489156845159615E+05,      /* I =122 */
(PID.TID 0000.0001)                 2.363090373286453E+05,      /* I =123 */
(PID.TID 0000.0001)                 2.216456717009910E+05,      /* I =124 */
(PID.TID 0000.0001)                 2.042856638159274E+05,      /* I =125 */
(PID.TID 0000.0001)                 1.830023121140663E+05,      /* I =126 */
(PID.TID 0000.0001)                 1.550106351852402E+05,      /* I =127 */
(PID.TID 0000.0001)     2 @  1.116647132697896E+05,             /* I =128:129 */
(PID.TID 0000.0001)                 1.550106351852402E+05,      /* I =130 */
(PID.TID 0000.0001)                 1.830023121140663E+05,      /* I =131 */
(PID.TID 0000.0001)                 2.042856638159274E+05,      /* I =132 */
(PID.TID 0000.0001)                 2.216456717009910E+05,      /* I =133 */
(PID.TID 0000.0001)                 2.363090373286453E+05,      /* I =134 */
(PID.TID 0000.0001)                 2.489156845159615E+05,      /* I =135 */
(PID.TID 0000.0001)                 2.598324334431715E+05,      /* I =136 */
(PID.TID 0000.0001)                 2.692809632393803E+05,      /* I =137 */
(PID.TID 0000.0001)                 2.773987887547638E+05,      /* I =138 */
(PID.TID 0000.0001)                 2.842717730650770E+05,      /* I =139 */
(PID.TID 0000.0001)                 2.899530125269320E+05,      /* I =140 */
(PID.TID 0000.0001)                 2.944745484118126E+05,      /* I =141 */
(PID.TID 0000.0001)                 2.978549726442448E+05,      /* I =142 */
(PID.TID 0000.0001)                 3.001044813731514E+05,      /* I =143 */
(PID.TID 0000.0001)     2 @  3.012281967256333E+05,             /* I =144:145 */
(PID.TID 0000.0001)                 3.001044813731514E+05,      /* I =146 */
(PID.TID 0000.0001)                 2.978549726442448E+05,      /* I =147 */
(PID.TID 0000.0001)                 2.944745484118126E+05,      /* I =148 */
(PID.TID 0000.0001)                 2.899530125269320E+05,      /* I =149 */
(PID.TID 0000.0001)                 2.842717730650770E+05,      /* I =150 */
(PID.TID 0000.0001)                 2.773987887547638E+05,      /* I =151 */
(PID.TID 0000.0001)                 2.692809632393803E+05,      /* I =152 */
(PID.TID 0000.0001)                 2.598324334431715E+05,      /* I =153 */
(PID.TID 0000.0001)                 2.489156845159615E+05,      /* I =154 */
(PID.TID 0000.0001)                 2.363090373286453E+05,      /* I =155 */
(PID.TID 0000.0001)                 2.216456717009910E+05,      /* I =156 */
(PID.TID 0000.0001)                 2.042856638159274E+05,      /* I =157 */
(PID.TID 0000.0001)                 1.830023121140663E+05,      /* I =158 */
(PID.TID 0000.0001)                 1.550106351852402E+05,      /* I =159 */
(PID.TID 0000.0001)     2 @  1.116647132697896E+05,             /* I =160:161 */
(PID.TID 0000.0001)                 1.550106351852402E+05,      /* I =162 */
(PID.TID 0000.0001)                 1.830023121140663E+05,      /* I =163 */
(PID.TID 0000.0001)                 2.042856638159274E+05,      /* I =164 */
(PID.TID 0000.0001)                 2.216456717009910E+05,      /* I =165 */
(PID.TID 0000.0001)                 2.363090373286453E+05,      /* I =166 */
(PID.TID 0000.0001)                 2.489156845159615E+05,      /* I =167 */
(PID.TID 0000.0001)                 2.598324334431715E+05,      /* I =168 */
(PID.TID 0000.0001)                 2.692809632393803E+05,      /* I =169 */
(PID.TID 0000.0001)                 2.773987887547638E+05,      /* I =170 */
(PID.TID 0000.0001)                 2.842717730650770E+05,      /* I =171 */
(PID.TID 0000.0001)                 2.899530125269320E+05,      /* I =172 */
(PID.TID 0000.0001)                 2.944745484118126E+05,      /* I =173 */
(PID.TID 0000.0001)                 2.978549726442448E+05,      /* I =174 */
(PID.TID 0000.0001)                 3.001044813731514E+05,      /* I =175 */
(PID.TID 0000.0001)     2 @  3.012281967256333E+05,             /* I =176:177 */
(PID.TID 0000.0001)                 3.001044813731514E+05,      /* I =178 */
(PID.TID 0000.0001)                 2.978549726442448E+05,      /* I =179 */
(PID.TID 0000.0001)                 2.944745484118126E+05,      /* I =180 */
(PID.TID 0000.0001)                 2.899530125269320E+05,      /* I =181 */
(PID.TID 0000.0001)                 2.842717730650770E+05,      /* I =182 */
(PID.TID 0000.0001)                 2.773987887547638E+05,      /* I =183 */
(PID.TID 0000.0001)                 2.692809632393803E+05,      /* I =184 */
(PID.TID 0000.0001)                 2.598324334431715E+05,      /* I =185 */
(PID.TID 0000.0001)                 2.489156845159615E+05,      /* I =186 */
(PID.TID 0000.0001)                 2.363090373286453E+05,      /* I =187 */
(PID.TID 0000.0001)                 2.216456717009910E+05,      /* I =188 */
(PID.TID 0000.0001)                 2.042856638159274E+05,      /* I =189 */
(PID.TID 0000.0001)                 1.830023121140663E+05,      /* I =190 */
(PID.TID 0000.0001)                 1.550106351852402E+05,      /* I =191 */
(PID.TID 0000.0001)                 1.116647132697896E+05       /* I =192 */
(PID.TID 0000.0001)     ;
(PID.TID 0000.0001) dyC =  /* dyC(1,:,1,:) ( m - cartesian, degrees - spherical ) */
(PID.TID 0000.0001)                 1.116647132697896E+05,      /* J =  1 */
(PID.TID 0000.0001)                 1.392485553682456E+05,      /* J =  2 */
(PID.TID 0000.0001)                 1.709683577475546E+05,      /* J =  3 */
(PID.TID 0000.0001)                 1.946528689404396E+05,      /* J =  4 */
(PID.TID 0000.0001)                 2.135973104330621E+05,      /* J =  5 */
(PID.TID 0000.0001)                 2.294199397881751E+05,      /* J =  6 */
(PID.TID 0000.0001)                 2.429466556954395E+05,      /* J =  7 */
(PID.TID 0000.0001)                 2.546409301203426E+05,      /* J =  8 */
(PID.TID 0000.0001)                 2.647792433358776E+05,      /* J =  9 */
(PID.TID 0000.0001)                 2.735322281461693E+05,      /* J = 10 */
(PID.TID 0000.0001)                 2.810066194331567E+05,      /* J = 11 */
(PID.TID 0000.0001)                 2.872689646798818E+05,      /* J = 12 */
(PID.TID 0000.0001)                 2.923600076816042E+05,      /* J = 13 */
(PID.TID 0000.0001)                 2.963038926108328E+05,      /* J = 14 */
(PID.TID 0000.0001)                 2.991142546940614E+05,      /* J = 15 */
(PID.TID 0000.0001)                 3.007982779774737E+05,      /* J = 16 */
(PID.TID 0000.0001)                 3.013593922621556E+05,      /* J = 17 */
(PID.TID 0000.0001)                 3.007982779774737E+05,      /* J = 18 */
(PID.TID 0000.0001)                 2.991142546940614E+05,      /* J = 19 */
(PID.TID 0000.0001)                 2.963038926108328E+05,      /* J = 20 */
(PID.TID 0000.0001)                 2.923600076816042E+05,      /* J = 21 */
(PID.TID 0000.0001)                 2.872689646798818E+05,      /* J = 22 */
(PID.TID 0000.0001)                 2.810066194331567E+05,      /* J = 23 */
(PID.TID 0000.0001)                 2.735322281461693E+05,      /* J = 24 */
(PID.TID 0000.0001)                 2.647792433358776E+05,      /* J = 25 */
(PID.TID 0000.0001)                 2.546409301203426E+05,      /* J = 26 */
(PID.TID 0000.0001)                 2.429466556954395E+05,      /* J = 27 */
(PID.TID 0000.0001)                 2.294199397881751E+05,      /* J = 28 */
(PID.TID 0000.0001)                 2.135973104330621E+05,      /* J = 29 */
(PID.TID 0000.0001)                 1.946528689404396E+05,      /* J = 30 */
(PID.TID 0000.0001)                 1.709683577475546E+05,      /* J = 31 */
(PID.TID 0000.0001)                 1.392485553682456E+05       /* J = 32 */
(PID.TID 0000.0001)     ;
(PID.TID 0000.0001) dxV =  /* dxV(:,1,:,1) ( m - cartesian, degrees - spherical ) */
(PID.TID 0000.0001)                 8.015229982404485E+04,      /* I =  1 */
(PID.TID 0000.0001)                 1.333130744932167E+05,      /* I =  2 */
(PID.TID 0000.0001)                 1.691744868125388E+05,      /* I =  3 */
(PID.TID 0000.0001)                 1.937548202845808E+05,      /* I =  4 */
(PID.TID 0000.0001)                 2.130490056266232E+05,      /* I =  5 */
(PID.TID 0000.0001)                 2.290479919482170E+05,      /* I =  6 */
(PID.TID 0000.0001)                 2.426774358027187E+05,      /* I =  7 */
(PID.TID 0000.0001)                 2.544372984218245E+05,      /* I =  8 */
(PID.TID 0000.0001)                 2.646201463833409E+05,      /* I =  9 */
(PID.TID 0000.0001)                 2.734046499617742E+05,      /* I = 10 */
(PID.TID 0000.0001)                 2.809019351693248E+05,      /* I = 11 */
(PID.TID 0000.0001)                 2.871811105272531E+05,      /* I = 12 */
(PID.TID 0000.0001)                 2.922844849381013E+05,      /* I = 13 */
(PID.TID 0000.0001)                 2.962371870845711E+05,      /* I = 14 */
(PID.TID 0000.0001)                 2.990534755671846E+05,      /* I = 15 */
(PID.TID 0000.0001)                 3.007409169495762E+05,      /* I = 16 */
(PID.TID 0000.0001)                 3.013031486921958E+05,      /* I = 17 */
(PID.TID 0000.0001)                 3.007409169495762E+05,      /* I = 18 */
(PID.TID 0000.0001)                 2.990534755671846E+05,      /* I = 19 */
(PID.TID 0000.0001)                 2.962371870845711E+05,      /* I = 20 */
(PID.TID 0000.0001)                 2.922844849381013E+05,      /* I = 21 */
(PID.TID 0000.0001)                 2.871811105272531E+05,      /* I = 22 */
(PID.TID 0000.0001)                 2.809019351693248E+05,      /* I = 23 */
(PID.TID 0000.0001)                 2.734046499617742E+05,      /* I = 24 */
(PID.TID 0000.0001)                 2.646201463833409E+05,      /* I = 25 */
(PID.TID 0000.0001)                 2.544372984218245E+05,      /* I = 26 */
(PID.TID 0000.0001)                 2.426774358027187E+05,      /* I = 27 */
(PID.TID 0000.0001)                 2.290479919482170E+05,      /* I = 28 */
(PID.TID 0000.0001)                 2.130490056266232E+05,      /* I = 29 */
(PID.TID 0000.0001)                 1.937548202845808E+05,      /* I = 30 */
(PID.TID 0000.0001)                 1.691744868125388E+05,      /* I = 31 */
(PID.TID 0000.0001)                 1.333130744932167E+05,      /* I = 32 */
(PID.TID 0000.0001)                 8.015229982404485E+04,      /* I = 33 */
(PID.TID 0000.0001)                 1.333130744932167E+05,      /* I = 34 */
(PID.TID 0000.0001)                 1.691744868125388E+05,      /* I = 35 */
(PID.TID 0000.0001)                 1.937548202845808E+05,      /* I = 36 */
(PID.TID 0000.0001)                 2.130490056266232E+05,      /* I = 37 */
(PID.TID 0000.0001)                 2.290479919482170E+05,      /* I = 38 */
(PID.TID 0000.0001)                 2.426774358027187E+05,      /* I = 39 */
(PID.TID 0000.0001)                 2.544372984218245E+05,      /* I = 40 */
(PID.TID 0000.0001)                 2.646201463833409E+05,      /* I = 41 */
(PID.TID 0000.0001)                 2.734046499617742E+05,      /* I = 42 */
(PID.TID 0000.0001)                 2.809019351693248E+05,      /* I = 43 */
(PID.TID 0000.0001)                 2.871811105272531E+05,      /* I = 44 */
(PID.TID 0000.0001)                 2.922844849381013E+05,      /* I = 45 */
(PID.TID 0000.0001)                 2.962371870845711E+05,      /* I = 46 */
(PID.TID 0000.0001)                 2.990534755671846E+05,      /* I = 47 */
(PID.TID 0000.0001)                 3.007409169495762E+05,      /* I = 48 */
(PID.TID 0000.0001)                 3.013031486921958E+05,      /* I = 49 */
(PID.TID 0000.0001)                 3.007409169495762E+05,      /* I = 50 */
(PID.TID 0000.0001)                 2.990534755671846E+05,      /* I = 51 */
(PID.TID 0000.0001)                 2.962371870845711E+05,      /* I = 52 */
(PID.TID 0000.0001)                 2.922844849381013E+05,      /* I = 53 */
(PID.TID 0000.0001)                 2.871811105272531E+05,      /* I = 54 */
(PID.TID 0000.0001)                 2.809019351693248E+05,      /* I = 55 */
(PID.TID 0000.0001)                 2.734046499617742E+05,      /* I = 56 */
(PID.TID 0000.0001)                 2.646201463833409E+05,      /* I = 57 */
(PID.TID 0000.0001)                 2.544372984218245E+05,      /* I = 58 */
(PID.TID 0000.0001)                 2.426774358027187E+05,      /* I = 59 */
(PID.TID 0000.0001)                 2.290479919482170E+05,      /* I = 60 */
(PID.TID 0000.0001)                 2.130490056266232E+05,      /* I = 61 */
(PID.TID 0000.0001)                 1.937548202845808E+05,      /* I = 62 */
(PID.TID 0000.0001)                 1.691744868125388E+05,      /* I = 63 */
(PID.TID 0000.0001)                 1.333130744932167E+05,      /* I = 64 */
(PID.TID 0000.0001)                 8.015229982404485E+04,      /* I = 65 */
(PID.TID 0000.0001)                 1.333130744932167E+05,      /* I = 66 */
(PID.TID 0000.0001)                 1.691744868125388E+05,      /* I = 67 */
(PID.TID 0000.0001)                 1.937548202845808E+05,      /* I = 68 */
(PID.TID 0000.0001)                 2.130490056266232E+05,      /* I = 69 */
(PID.TID 0000.0001)                 2.290479919482170E+05,      /* I = 70 */
(PID.TID 0000.0001)                 2.426774358027187E+05,      /* I = 71 */
(PID.TID 0000.0001)                 2.544372984218245E+05,      /* I = 72 */
(PID.TID 0000.0001)                 2.646201463833409E+05,      /* I = 73 */
(PID.TID 0000.0001)                 2.734046499617742E+05,      /* I = 74 */
(PID.TID 0000.0001)                 2.809019351693248E+05,      /* I = 75 */
(PID.TID 0000.0001)                 2.871811105272531E+05,      /* I = 76 */
(PID.TID 0000.0001)                 2.922844849381013E+05,      /* I = 77 */
(PID.TID 0000.0001)                 2.962371870845711E+05,      /* I = 78 */
(PID.TID 0000.0001)                 2.990534755671846E+05,      /* I = 79 */
(PID.TID 0000.0001)                 3.007409169495762E+05,      /* I = 80 */
(PID.TID 0000.0001)                 3.013031486921958E+05,      /* I = 81 */
(PID.TID 0000.0001)                 3.007409169495762E+05,      /* I = 82 */
(PID.TID 0000.0001)                 2.990534755671846E+05,      /* I = 83 */
(PID.TID 0000.0001)                 2.962371870845711E+05,      /* I = 84 */
(PID.TID 0000.0001)                 2.922844849381013E+05,      /* I = 85 */
(PID.TID 0000.0001)                 2.871811105272531E+05,      /* I = 86 */
(PID.TID 0000.0001)                 2.809019351693248E+05,      /* I = 87 */
(PID.TID 0000.0001)                 2.734046499617742E+05,      /* I = 88 */
(PID.TID 0000.0001)                 2.646201463833409E+05,      /* I = 89 */
(PID.TID 0000.0001)                 2.544372984218245E+05,      /* I = 90 */
(PID.TID 0000.0001)                 2.426774358027187E+05,      /* I = 91 */
(PID.TID 0000.0001)                 2.290479919482170E+05,      /* I = 92 */
(PID.TID 0000.0001)                 2.130490056266232E+05,      /* I = 93 */
(PID.TID 0000.0001)                 1.937548202845808E+05,      /* I = 94 */
(PID.TID 0000.0001)                 1.691744868125388E+05,      /* I = 95 */
(PID.TID 0000.0001)                 1.333130744932167E+05,      /* I = 96 */
(PID.TID 0000.0001)                 8.015229982404485E+04,      /* I = 97 */
(PID.TID 0000.0001)                 1.333130744932167E+05,      /* I = 98 */
(PID.TID 0000.0001)                 1.691744868125388E+05,      /* I = 99 */
(PID.TID 0000.0001)                 1.937548202845808E+05,      /* I =100 */
(PID.TID 0000.0001)                 2.130490056266232E+05,      /* I =101 */
(PID.TID 0000.0001)                 2.290479919482170E+05,      /* I =102 */
(PID.TID 0000.0001)                 2.426774358027187E+05,      /* I =103 */
(PID.TID 0000.0001)                 2.544372984218245E+05,      /* I =104 */
(PID.TID 0000.0001)                 2.646201463833409E+05,      /* I =105 */
(PID.TID 0000.0001)                 2.734046499617742E+05,      /* I =106 */
(PID.TID 0000.0001)                 2.809019351693248E+05,      /* I =107 */
(PID.TID 0000.0001)                 2.871811105272531E+05,      /* I =108 */
(PID.TID 0000.0001)                 2.922844849381013E+05,      /* I =109 */
(PID.TID 0000.0001)                 2.962371870845711E+05,      /* I =110 */
(PID.TID 0000.0001)                 2.990534755671846E+05,      /* I =111 */
(PID.TID 0000.0001)                 3.007409169495762E+05,      /* I =112 */
(PID.TID 0000.0001)                 3.013031486921958E+05,      /* I =113 */
(PID.TID 0000.0001)                 3.007409169495762E+05,      /* I =114 */
(PID.TID 0000.0001)                 2.990534755671846E+05,      /* I =115 */
(PID.TID 0000.0001)                 2.962371870845711E+05,      /* I =116 */
(PID.TID 0000.0001)                 2.922844849381013E+05,      /* I =117 */
(PID.TID 0000.0001)                 2.871811105272531E+05,      /* I =118 */
(PID.TID 0000.0001)                 2.809019351693248E+05,      /* I =119 */
(PID.TID 0000.0001)                 2.734046499617742E+05,      /* I =120 */
(PID.TID 0000.0001)                 2.646201463833409E+05,      /* I =121 */
(PID.TID 0000.0001)                 2.544372984218245E+05,      /* I =122 */
(PID.TID 0000.0001)                 2.426774358027187E+05,      /* I =123 */
(PID.TID 0000.0001)                 2.290479919482170E+05,      /* I =124 */
(PID.TID 0000.0001)                 2.130490056266232E+05,      /* I =125 */
(PID.TID 0000.0001)                 1.937548202845808E+05,      /* I =126 */
(PID.TID 0000.0001)                 1.691744868125388E+05,      /* I =127 */
(PID.TID 0000.0001)                 1.333130744932167E+05,      /* I =128 */
(PID.TID 0000.0001)                 8.015229982404485E+04,      /* I =129 */
(PID.TID 0000.0001)                 1.333130744932167E+05,      /* I =130 */
(PID.TID 0000.0001)                 1.691744868125388E+05,      /* I =131 */
(PID.TID 0000.0001)                 1.937548202845808E+05,      /* I =132 */
(PID.TID 0000.0001)                 2.130490056266232E+05,      /* I =133 */
(PID.TID 0000.0001)                 2.290479919482170E+05,      /* I =134 */
(PID.TID 0000.0001)                 2.426774358027187E+05,      /* I =135 */
(PID.TID 0000.0001)                 2.544372984218245E+05,      /* I =136 */
(PID.TID 0000.0001)                 2.646201463833409E+05,      /* I =137 */
(PID.TID 0000.0001)                 2.734046499617742E+05,      /* I =138 */
(PID.TID 0000.0001)                 2.809019351693248E+05,      /* I =139 */
(PID.TID 0000.0001)                 2.871811105272531E+05,      /* I =140 */
(PID.TID 0000.0001)                 2.922844849381013E+05,      /* I =141 */
(PID.TID 0000.0001)                 2.962371870845711E+05,      /* I =142 */
(PID.TID 0000.0001)                 2.990534755671846E+05,      /* I =143 */
(PID.TID 0000.0001)                 3.007409169495762E+05,      /* I =144 */
(PID.TID 0000.0001)                 3.013031486921958E+05,      /* I =145 */
(PID.TID 0000.0001)                 3.007409169495762E+05,      /* I =146 */
(PID.TID 0000.0001)                 2.990534755671846E+05,      /* I =147 */
(PID.TID 0000.0001)                 2.962371870845711E+05,      /* I =148 */
(PID.TID 0000.0001)                 2.922844849381013E+05,      /* I =149 */
(PID.TID 0000.0001)                 2.871811105272531E+05,      /* I =150 */
(PID.TID 0000.0001)                 2.809019351693248E+05,      /* I =151 */
(PID.TID 0000.0001)                 2.734046499617742E+05,      /* I =152 */
(PID.TID 0000.0001)                 2.646201463833409E+05,      /* I =153 */
(PID.TID 0000.0001)                 2.544372984218245E+05,      /* I =154 */
(PID.TID 0000.0001)                 2.426774358027187E+05,      /* I =155 */
(PID.TID 0000.0001)                 2.290479919482170E+05,      /* I =156 */
(PID.TID 0000.0001)                 2.130490056266232E+05,      /* I =157 */
(PID.TID 0000.0001)                 1.937548202845808E+05,      /* I =158 */
(PID.TID 0000.0001)                 1.691744868125388E+05,      /* I =159 */
(PID.TID 0000.0001)                 1.333130744932167E+05,      /* I =160 */
(PID.TID 0000.0001)                 8.015229982404485E+04,      /* I =161 */
(PID.TID 0000.0001)                 1.333130744932167E+05,      /* I =162 */
(PID.TID 0000.0001)                 1.691744868125388E+05,      /* I =163 */
(PID.TID 0000.0001)                 1.937548202845808E+05,      /* I =164 */
(PID.TID 0000.0001)                 2.130490056266232E+05,      /* I =165 */
(PID.TID 0000.0001)                 2.290479919482170E+05,      /* I =166 */
(PID.TID 0000.0001)                 2.426774358027187E+05,      /* I =167 */
(PID.TID 0000.0001)                 2.544372984218245E+05,      /* I =168 */
(PID.TID 0000.0001)                 2.646201463833409E+05,      /* I =169 */
(PID.TID 0000.0001)                 2.734046499617742E+05,      /* I =170 */
(PID.TID 0000.0001)                 2.809019351693248E+05,      /* I =171 */
(PID.TID 0000.0001)                 2.871811105272531E+05,      /* I =172 */
(PID.TID 0000.0001)                 2.922844849381013E+05,      /* I =173 */
(PID.TID 0000.0001)                 2.962371870845711E+05,      /* I =174 */
(PID.TID 0000.0001)                 2.990534755671846E+05,      /* I =175 */
(PID.TID 0000.0001)                 3.007409169495762E+05,      /* I =176 */
(PID.TID 0000.0001)                 3.013031486921958E+05,      /* I =177 */
(PID.TID 0000.0001)                 3.007409169495762E+05,      /* I =178 */
(PID.TID 0000.0001)                 2.990534755671846E+05,      /* I =179 */
(PID.TID 0000.0001)                 2.962371870845711E+05,      /* I =180 */
(PID.TID 0000.0001)                 2.922844849381013E+05,      /* I =181 */
(PID.TID 0000.0001)                 2.871811105272531E+05,      /* I =182 */
(PID.TID 0000.0001)                 2.809019351693248E+05,      /* I =183 */
(PID.TID 0000.0001)                 2.734046499617742E+05,      /* I =184 */
(PID.TID 0000.0001)                 2.646201463833409E+05,      /* I =185 */
(PID.TID 0000.0001)                 2.544372984218245E+05,      /* I =186 */
(PID.TID 0000.0001)                 2.426774358027187E+05,      /* I =187 */
(PID.TID 0000.0001)                 2.290479919482170E+05,      /* I =188 */
(PID.TID 0000.0001)                 2.130490056266232E+05,      /* I =189 */
(PID.TID 0000.0001)                 1.937548202845808E+05,      /* I =190 */
(PID.TID 0000.0001)                 1.691744868125388E+05,      /* I =191 */
(PID.TID 0000.0001)                 1.333130744932167E+05       /* I =192 */
(PID.TID 0000.0001)     ;
(PID.TID 0000.0001) dxV =  /* dxV(1,:,1,:) ( m - cartesian, degrees - spherical ) */
(PID.TID 0000.0001)                 8.015229982404485E+04,      /* J =  1 */
(PID.TID 0000.0001)                 1.363686624762857E+05,      /* J =  2 */
(PID.TID 0000.0001)                 1.701434472301228E+05,      /* J =  3 */
(PID.TID 0000.0001)                 1.942512285132079E+05,      /* J =  4 */
(PID.TID 0000.0001)                 2.133596519724930E+05,      /* J =  5 */
(PID.TID 0000.0001)                 2.292657670664826E+05,      /* J =  6 */
(PID.TID 0000.0001)                 2.428421011082736E+05,      /* J =  7 */
(PID.TID 0000.0001)                 2.545689482926672E+05,      /* J =  8 */
(PID.TID 0000.0001)                 2.647301290465471E+05,      /* J =  9 */
(PID.TID 0000.0001)                 2.734999039571499E+05,      /* J = 10 */
(PID.TID 0000.0001)                 2.809869621221908E+05,      /* J = 11 */
(PID.TID 0000.0001)                 2.872589691757398E+05,      /* J = 12 */
(PID.TID 0000.0001)                 2.923573353492430E+05,      /* J = 13 */
(PID.TID 0000.0001)                 2.963066114700798E+05,      /* J = 14 */
(PID.TID 0000.0001)                 2.991206817612058E+05,      /* J = 15 */
(PID.TID 0000.0001)                 3.008068781660835E+05,      /* J = 16 */
(PID.TID 0000.0001)                 3.013686170437830E+05,      /* J = 17 */
(PID.TID 0000.0001)                 3.008068781660835E+05,      /* J = 18 */
(PID.TID 0000.0001)                 2.991206817612058E+05,      /* J = 19 */
(PID.TID 0000.0001)                 2.963066114700798E+05,      /* J = 20 */
(PID.TID 0000.0001)                 2.923573353492430E+05,      /* J = 21 */
(PID.TID 0000.0001)                 2.872589691757398E+05,      /* J = 22 */
(PID.TID 0000.0001)                 2.809869621221908E+05,      /* J = 23 */
(PID.TID 0000.0001)                 2.734999039571499E+05,      /* J = 24 */
(PID.TID 0000.0001)                 2.647301290465471E+05,      /* J = 25 */
(PID.TID 0000.0001)                 2.545689482926672E+05,      /* J = 26 */
(PID.TID 0000.0001)                 2.428421011082736E+05,      /* J = 27 */
(PID.TID 0000.0001)                 2.292657670664826E+05,      /* J = 28 */
(PID.TID 0000.0001)                 2.133596519724930E+05,      /* J = 29 */
(PID.TID 0000.0001)                 1.942512285132079E+05,      /* J = 30 */
(PID.TID 0000.0001)                 1.701434472301228E+05,      /* J = 31 */
(PID.TID 0000.0001)                 1.363686624762857E+05       /* J = 32 */
(PID.TID 0000.0001)     ;
(PID.TID 0000.0001) dyU =  /* dyU(:,1,:,1) ( m - cartesian, degrees - spherical ) */
(PID.TID 0000.0001)                 8.015229982404485E+04,      /* I =  1 */
(PID.TID 0000.0001)                 1.363686624762857E+05,      /* I =  2 */
(PID.TID 0000.0001)                 1.701434472301228E+05,      /* I =  3 */
(PID.TID 0000.0001)                 1.942512285132079E+05,      /* I =  4 */
(PID.TID 0000.0001)                 2.133596519724930E+05,      /* I =  5 */
(PID.TID 0000.0001)                 2.292657670664826E+05,      /* I =  6 */
(PID.TID 0000.0001)                 2.428421011082736E+05,      /* I =  7 */
(PID.TID 0000.0001)                 2.545689482926672E+05,      /* I =  8 */
(PID.TID 0000.0001)                 2.647301290465471E+05,      /* I =  9 */
(PID.TID 0000.0001)                 2.734999039571499E+05,      /* I = 10 */
(PID.TID 0000.0001)                 2.809869621221908E+05,      /* I = 11 */
(PID.TID 0000.0001)                 2.872589691757398E+05,      /* I = 12 */
(PID.TID 0000.0001)                 2.923573353492430E+05,      /* I = 13 */
(PID.TID 0000.0001)                 2.963066114700798E+05,      /* I = 14 */
(PID.TID 0000.0001)                 2.991206817612058E+05,      /* I = 15 */
(PID.TID 0000.0001)                 3.008068781660835E+05,      /* I = 16 */
(PID.TID 0000.0001)                 3.013686170437830E+05,      /* I = 17 */
(PID.TID 0000.0001)                 3.008068781660835E+05,      /* I = 18 */
(PID.TID 0000.0001)                 2.991206817612058E+05,      /* I = 19 */
(PID.TID 0000.0001)                 2.963066114700798E+05,      /* I = 20 */
(PID.TID 0000.0001)                 2.923573353492430E+05,      /* I = 21 */
(PID.TID 0000.0001)                 2.872589691757398E+05,      /* I = 22 */
(PID.TID 0000.0001)                 2.809869621221908E+05,      /* I = 23 */
(PID.TID 0000.0001)                 2.734999039571499E+05,      /* I = 24 */
(PID.TID 0000.0001)                 2.647301290465471E+05,      /* I = 25 */
(PID.TID 0000.0001)                 2.545689482926672E+05,      /* I = 26 */
(PID.TID 0000.0001)                 2.428421011082736E+05,      /* I = 27 */
(PID.TID 0000.0001)                 2.292657670664826E+05,      /* I = 28 */
(PID.TID 0000.0001)                 2.133596519724930E+05,      /* I = 29 */
(PID.TID 0000.0001)                 1.942512285132079E+05,      /* I = 30 */
(PID.TID 0000.0001)                 1.701434472301228E+05,      /* I = 31 */
(PID.TID 0000.0001)                 1.363686624762857E+05,      /* I = 32 */
(PID.TID 0000.0001)                 8.015229982404485E+04,      /* I = 33 */
(PID.TID 0000.0001)                 1.363686624762857E+05,      /* I = 34 */
(PID.TID 0000.0001)                 1.701434472301228E+05,      /* I = 35 */
(PID.TID 0000.0001)                 1.942512285132079E+05,      /* I = 36 */
(PID.TID 0000.0001)                 2.133596519724930E+05,      /* I = 37 */
(PID.TID 0000.0001)                 2.292657670664826E+05,      /* I = 38 */
(PID.TID 0000.0001)                 2.428421011082736E+05,      /* I = 39 */
(PID.TID 0000.0001)                 2.545689482926672E+05,      /* I = 40 */
(PID.TID 0000.0001)                 2.647301290465471E+05,      /* I = 41 */
(PID.TID 0000.0001)                 2.734999039571499E+05,      /* I = 42 */
(PID.TID 0000.0001)                 2.809869621221908E+05,      /* I = 43 */
(PID.TID 0000.0001)                 2.872589691757398E+05,      /* I = 44 */
(PID.TID 0000.0001)                 2.923573353492430E+05,      /* I = 45 */
(PID.TID 0000.0001)                 2.963066114700798E+05,      /* I = 46 */
(PID.TID 0000.0001)                 2.991206817612058E+05,      /* I = 47 */
(PID.TID 0000.0001)                 3.008068781660835E+05,      /* I = 48 */
(PID.TID 0000.0001)                 3.013686170437830E+05,      /* I = 49 */
(PID.TID 0000.0001)                 3.008068781660835E+05,      /* I = 50 */
(PID.TID 0000.0001)                 2.991206817612058E+05,      /* I = 51 */
(PID.TID 0000.0001)                 2.963066114700798E+05,      /* I = 52 */
(PID.TID 0000.0001)                 2.923573353492430E+05,      /* I = 53 */
(PID.TID 0000.0001)                 2.872589691757398E+05,      /* I = 54 */
(PID.TID 0000.0001)                 2.809869621221908E+05,      /* I = 55 */
(PID.TID 0000.0001)                 2.734999039571499E+05,      /* I = 56 */
(PID.TID 0000.0001)                 2.647301290465471E+05,      /* I = 57 */
(PID.TID 0000.0001)                 2.545689482926672E+05,      /* I = 58 */
(PID.TID 0000.0001)                 2.428421011082736E+05,      /* I = 59 */
(PID.TID 0000.0001)                 2.292657670664826E+05,      /* I = 60 */
(PID.TID 0000.0001)                 2.133596519724930E+05,      /* I = 61 */
(PID.TID 0000.0001)                 1.942512285132079E+05,      /* I = 62 */
(PID.TID 0000.0001)                 1.701434472301228E+05,      /* I = 63 */
(PID.TID 0000.0001)                 1.363686624762857E+05,      /* I = 64 */
(PID.TID 0000.0001)                 8.015229982404485E+04,      /* I = 65 */
(PID.TID 0000.0001)                 1.363686624762857E+05,      /* I = 66 */
(PID.TID 0000.0001)                 1.701434472301228E+05,      /* I = 67 */
(PID.TID 0000.0001)                 1.942512285132079E+05,      /* I = 68 */
(PID.TID 0000.0001)                 2.133596519724930E+05,      /* I = 69 */
(PID.TID 0000.0001)                 2.292657670664826E+05,      /* I = 70 */
(PID.TID 0000.0001)                 2.428421011082736E+05,      /* I = 71 */
(PID.TID 0000.0001)                 2.545689482926672E+05,      /* I = 72 */
(PID.TID 0000.0001)                 2.647301290465471E+05,      /* I = 73 */
(PID.TID 0000.0001)                 2.734999039571499E+05,      /* I = 74 */
(PID.TID 0000.0001)                 2.809869621221908E+05,      /* I = 75 */
(PID.TID 0000.0001)                 2.872589691757398E+05,      /* I = 76 */
(PID.TID 0000.0001)                 2.923573353492430E+05,      /* I = 77 */
(PID.TID 0000.0001)                 2.963066114700798E+05,      /* I = 78 */
(PID.TID 0000.0001)                 2.991206817612058E+05,      /* I = 79 */
(PID.TID 0000.0001)                 3.008068781660835E+05,      /* I = 80 */
(PID.TID 0000.0001)                 3.013686170437830E+05,      /* I = 81 */
(PID.TID 0000.0001)                 3.008068781660835E+05,      /* I = 82 */
(PID.TID 0000.0001)                 2.991206817612058E+05,      /* I = 83 */
(PID.TID 0000.0001)                 2.963066114700798E+05,      /* I = 84 */
(PID.TID 0000.0001)                 2.923573353492430E+05,      /* I = 85 */
(PID.TID 0000.0001)                 2.872589691757398E+05,      /* I = 86 */
(PID.TID 0000.0001)                 2.809869621221908E+05,      /* I = 87 */
(PID.TID 0000.0001)                 2.734999039571499E+05,      /* I = 88 */
(PID.TID 0000.0001)                 2.647301290465471E+05,      /* I = 89 */
(PID.TID 0000.0001)                 2.545689482926672E+05,      /* I = 90 */
(PID.TID 0000.0001)                 2.428421011082736E+05,      /* I = 91 */
(PID.TID 0000.0001)                 2.292657670664826E+05,      /* I = 92 */
(PID.TID 0000.0001)                 2.133596519724930E+05,      /* I = 93 */
(PID.TID 0000.0001)                 1.942512285132079E+05,      /* I = 94 */
(PID.TID 0000.0001)                 1.701434472301228E+05,      /* I = 95 */
(PID.TID 0000.0001)                 1.363686624762857E+05,      /* I = 96 */
(PID.TID 0000.0001)                 8.015229982404485E+04,      /* I = 97 */
(PID.TID 0000.0001)                 1.363686624762857E+05,      /* I = 98 */
(PID.TID 0000.0001)                 1.701434472301228E+05,      /* I = 99 */
(PID.TID 0000.0001)                 1.942512285132079E+05,      /* I =100 */
(PID.TID 0000.0001)                 2.133596519724930E+05,      /* I =101 */
(PID.TID 0000.0001)                 2.292657670664826E+05,      /* I =102 */
(PID.TID 0000.0001)                 2.428421011082736E+05,      /* I =103 */
(PID.TID 0000.0001)                 2.545689482926672E+05,      /* I =104 */
(PID.TID 0000.0001)                 2.647301290465471E+05,      /* I =105 */
(PID.TID 0000.0001)                 2.734999039571499E+05,      /* I =106 */
(PID.TID 0000.0001)                 2.809869621221908E+05,      /* I =107 */
(PID.TID 0000.0001)                 2.872589691757398E+05,      /* I =108 */
(PID.TID 0000.0001)                 2.923573353492430E+05,      /* I =109 */
(PID.TID 0000.0001)                 2.963066114700798E+05,      /* I =110 */
(PID.TID 0000.0001)                 2.991206817612058E+05,      /* I =111 */
(PID.TID 0000.0001)                 3.008068781660835E+05,      /* I =112 */
(PID.TID 0000.0001)                 3.013686170437830E+05,      /* I =113 */
(PID.TID 0000.0001)                 3.008068781660835E+05,      /* I =114 */
(PID.TID 0000.0001)                 2.991206817612058E+05,      /* I =115 */
(PID.TID 0000.0001)                 2.963066114700798E+05,      /* I =116 */
(PID.TID 0000.0001)                 2.923573353492430E+05,      /* I =117 */
(PID.TID 0000.0001)                 2.872589691757398E+05,      /* I =118 */
(PID.TID 0000.0001)                 2.809869621221908E+05,      /* I =119 */
(PID.TID 0000.0001)                 2.734999039571499E+05,      /* I =120 */
(PID.TID 0000.0001)                 2.647301290465471E+05,      /* I =121 */
(PID.TID 0000.0001)                 2.545689482926672E+05,      /* I =122 */
(PID.TID 0000.0001)                 2.428421011082736E+05,      /* I =123 */
(PID.TID 0000.0001)                 2.292657670664826E+05,      /* I =124 */
(PID.TID 0000.0001)                 2.133596519724930E+05,      /* I =125 */
(PID.TID 0000.0001)                 1.942512285132079E+05,      /* I =126 */
(PID.TID 0000.0001)                 1.701434472301228E+05,      /* I =127 */
(PID.TID 0000.0001)                 1.363686624762857E+05,      /* I =128 */
(PID.TID 0000.0001)                 8.015229982404485E+04,      /* I =129 */
(PID.TID 0000.0001)                 1.363686624762857E+05,      /* I =130 */
(PID.TID 0000.0001)                 1.701434472301228E+05,      /* I =131 */
(PID.TID 0000.0001)                 1.942512285132079E+05,      /* I =132 */
(PID.TID 0000.0001)                 2.133596519724930E+05,      /* I =133 */
(PID.TID 0000.0001)                 2.292657670664826E+05,      /* I =134 */
(PID.TID 0000.0001)                 2.428421011082736E+05,      /* I =135 */
(PID.TID 0000.0001)                 2.545689482926672E+05,      /* I =136 */
(PID.TID 0000.0001)                 2.647301290465471E+05,      /* I =137 */
(PID.TID 0000.0001)                 2.734999039571499E+05,      /* I =138 */
(PID.TID 0000.0001)                 2.809869621221908E+05,      /* I =139 */
(PID.TID 0000.0001)                 2.872589691757398E+05,      /* I =140 */
(PID.TID 0000.0001)                 2.923573353492430E+05,      /* I =141 */
(PID.TID 0000.0001)                 2.963066114700798E+05,      /* I =142 */
(PID.TID 0000.0001)                 2.991206817612058E+05,      /* I =143 */
(PID.TID 0000.0001)                 3.008068781660835E+05,      /* I =144 */
(PID.TID 0000.0001)                 3.013686170437830E+05,      /* I =145 */
(PID.TID 0000.0001)                 3.008068781660835E+05,      /* I =146 */
(PID.TID 0000.0001)                 2.991206817612058E+05,      /* I =147 */
(PID.TID 0000.0001)                 2.963066114700798E+05,      /* I =148 */
(PID.TID 0000.0001)                 2.923573353492430E+05,      /* I =149 */
(PID.TID 0000.0001)                 2.872589691757398E+05,      /* I =150 */
(PID.TID 0000.0001)                 2.809869621221908E+05,      /* I =151 */
(PID.TID 0000.0001)                 2.734999039571499E+05,      /* I =152 */
(PID.TID 0000.0001)                 2.647301290465471E+05,      /* I =153 */
(PID.TID 0000.0001)                 2.545689482926672E+05,      /* I =154 */
(PID.TID 0000.0001)                 2.428421011082736E+05,      /* I =155 */
(PID.TID 0000.0001)                 2.292657670664826E+05,      /* I =156 */
(PID.TID 0000.0001)                 2.133596519724930E+05,      /* I =157 */
(PID.TID 0000.0001)                 1.942512285132079E+05,      /* I =158 */
(PID.TID 0000.0001)                 1.701434472301228E+05,      /* I =159 */
(PID.TID 0000.0001)                 1.363686624762857E+05,      /* I =160 */
(PID.TID 0000.0001)                 8.015229982404485E+04,      /* I =161 */
(PID.TID 0000.0001)                 1.363686624762857E+05,      /* I =162 */
(PID.TID 0000.0001)                 1.701434472301228E+05,      /* I =163 */
(PID.TID 0000.0001)                 1.942512285132079E+05,      /* I =164 */
(PID.TID 0000.0001)                 2.133596519724930E+05,      /* I =165 */
(PID.TID 0000.0001)                 2.292657670664826E+05,      /* I =166 */
(PID.TID 0000.0001)                 2.428421011082736E+05,      /* I =167 */
(PID.TID 0000.0001)                 2.545689482926672E+05,      /* I =168 */
(PID.TID 0000.0001)                 2.647301290465471E+05,      /* I =169 */
(PID.TID 0000.0001)                 2.734999039571499E+05,      /* I =170 */
(PID.TID 0000.0001)                 2.809869621221908E+05,      /* I =171 */
(PID.TID 0000.0001)                 2.872589691757398E+05,      /* I =172 */
(PID.TID 0000.0001)                 2.923573353492430E+05,      /* I =173 */
(PID.TID 0000.0001)                 2.963066114700798E+05,      /* I =174 */
(PID.TID 0000.0001)                 2.991206817612058E+05,      /* I =175 */
(PID.TID 0000.0001)                 3.008068781660835E+05,      /* I =176 */
(PID.TID 0000.0001)                 3.013686170437830E+05,      /* I =177 */
(PID.TID 0000.0001)                 3.008068781660835E+05,      /* I =178 */
(PID.TID 0000.0001)                 2.991206817612058E+05,      /* I =179 */
(PID.TID 0000.0001)                 2.963066114700798E+05,      /* I =180 */
(PID.TID 0000.0001)                 2.923573353492430E+05,      /* I =181 */
(PID.TID 0000.0001)                 2.872589691757398E+05,      /* I =182 */
(PID.TID 0000.0001)                 2.809869621221908E+05,      /* I =183 */
(PID.TID 0000.0001)                 2.734999039571499E+05,      /* I =184 */
(PID.TID 0000.0001)                 2.647301290465471E+05,      /* I =185 */
(PID.TID 0000.0001)                 2.545689482926672E+05,      /* I =186 */
(PID.TID 0000.0001)                 2.428421011082736E+05,      /* I =187 */
(PID.TID 0000.0001)                 2.292657670664826E+05,      /* I =188 */
(PID.TID 0000.0001)                 2.133596519724930E+05,      /* I =189 */
(PID.TID 0000.0001)                 1.942512285132079E+05,      /* I =190 */
(PID.TID 0000.0001)                 1.701434472301228E+05,      /* I =191 */
(PID.TID 0000.0001)                 1.363686624762857E+05       /* I =192 */
(PID.TID 0000.0001)     ;
(PID.TID 0000.0001) dyU =  /* dyU(1,:,1,:) ( m - cartesian, degrees - spherical ) */
(PID.TID 0000.0001)                 8.015229982404485E+04,      /* J =  1 */
(PID.TID 0000.0001)                 1.333130744932167E+05,      /* J =  2 */
(PID.TID 0000.0001)                 1.691744868125388E+05,      /* J =  3 */
(PID.TID 0000.0001)                 1.937548202845808E+05,      /* J =  4 */
(PID.TID 0000.0001)                 2.130490056266232E+05,      /* J =  5 */
(PID.TID 0000.0001)                 2.290479919482170E+05,      /* J =  6 */
(PID.TID 0000.0001)                 2.426774358027187E+05,      /* J =  7 */
(PID.TID 0000.0001)                 2.544372984218245E+05,      /* J =  8 */
(PID.TID 0000.0001)                 2.646201463833409E+05,      /* J =  9 */
(PID.TID 0000.0001)                 2.734046499617742E+05,      /* J = 10 */
(PID.TID 0000.0001)                 2.809019351693248E+05,      /* J = 11 */
(PID.TID 0000.0001)                 2.871811105272531E+05,      /* J = 12 */
(PID.TID 0000.0001)                 2.922844849381013E+05,      /* J = 13 */
(PID.TID 0000.0001)                 2.962371870845711E+05,      /* J = 14 */
(PID.TID 0000.0001)                 2.990534755671846E+05,      /* J = 15 */
(PID.TID 0000.0001)                 3.007409169495762E+05,      /* J = 16 */
(PID.TID 0000.0001)                 3.013031486921958E+05,      /* J = 17 */
(PID.TID 0000.0001)                 3.007409169495762E+05,      /* J = 18 */
(PID.TID 0000.0001)                 2.990534755671846E+05,      /* J = 19 */
(PID.TID 0000.0001)                 2.962371870845711E+05,      /* J = 20 */
(PID.TID 0000.0001)                 2.922844849381013E+05,      /* J = 21 */
(PID.TID 0000.0001)                 2.871811105272531E+05,      /* J = 22 */
(PID.TID 0000.0001)                 2.809019351693248E+05,      /* J = 23 */
(PID.TID 0000.0001)                 2.734046499617742E+05,      /* J = 24 */
(PID.TID 0000.0001)                 2.646201463833409E+05,      /* J = 25 */
(PID.TID 0000.0001)                 2.544372984218245E+05,      /* J = 26 */
(PID.TID 0000.0001)                 2.426774358027187E+05,      /* J = 27 */
(PID.TID 0000.0001)                 2.290479919482170E+05,      /* J = 28 */
(PID.TID 0000.0001)                 2.130490056266232E+05,      /* J = 29 */
(PID.TID 0000.0001)                 1.937548202845808E+05,      /* J = 30 */
(PID.TID 0000.0001)                 1.691744868125388E+05,      /* J = 31 */
(PID.TID 0000.0001)                 1.333130744932167E+05       /* J = 32 */
(PID.TID 0000.0001)     ;
(PID.TID 0000.0001) rA =  /* rA(:,1,:,1) ( m - cartesian, degrees - spherical ) */
(PID.TID 0000.0001)                 1.483193709397766E+10,      /* I =  1 */
(PID.TID 0000.0001)                 2.476789293979550E+10,      /* I =  2 */
(PID.TID 0000.0001)                 3.387112505847638E+10,      /* I =  3 */
(PID.TID 0000.0001)                 4.197302689155780E+10,      /* I =  4 */
(PID.TID 0000.0001)                 4.929378289714742E+10,      /* I =  5 */
(PID.TID 0000.0001)                 5.596406977246146E+10,      /* I =  6 */
(PID.TID 0000.0001)                 6.205077247510580E+10,      /* I =  7 */
(PID.TID 0000.0001)                 6.758266883915286E+10,      /* I =  8 */
(PID.TID 0000.0001)                 7.256536165779025E+10,      /* I =  9 */
(PID.TID 0000.0001)                 7.699024655653084E+10,      /* I = 10 */
(PID.TID 0000.0001)                 8.084038186855891E+10,      /* I = 11 */
(PID.TID 0000.0001)                 8.409466866853806E+10,      /* I = 12 */
(PID.TID 0000.0001)                 8.673102186020337E+10,      /* I = 13 */
(PID.TID 0000.0001)                 8.872885597085371E+10,      /* I = 14 */
(PID.TID 0000.0001)                 9.007102933895001E+10,      /* I = 15 */
(PID.TID 0000.0001)     2 @  9.074531328717996E+10,             /* I = 16: 17 */
(PID.TID 0000.0001)                 9.007102933895001E+10,      /* I = 18 */
(PID.TID 0000.0001)                 8.872885597085371E+10,      /* I = 19 */
(PID.TID 0000.0001)                 8.673102186020337E+10,      /* I = 20 */
(PID.TID 0000.0001)                 8.409466866853806E+10,      /* I = 21 */
(PID.TID 0000.0001)                 8.084038186855891E+10,      /* I = 22 */
(PID.TID 0000.0001)                 7.699024655653084E+10,      /* I = 23 */
(PID.TID 0000.0001)                 7.256536165779025E+10,      /* I = 24 */
(PID.TID 0000.0001)                 6.758266883915286E+10,      /* I = 25 */
(PID.TID 0000.0001)                 6.205077247510580E+10,      /* I = 26 */
(PID.TID 0000.0001)                 5.596406977246146E+10,      /* I = 27 */
(PID.TID 0000.0001)                 4.929378289714742E+10,      /* I = 28 */
(PID.TID 0000.0001)                 4.197302689155780E+10,      /* I = 29 */
(PID.TID 0000.0001)                 3.387112505847638E+10,      /* I = 30 */
(PID.TID 0000.0001)                 2.476789293979550E+10,      /* I = 31 */
(PID.TID 0000.0001)     2 @  1.483193709397766E+10,             /* I = 32: 33 */
(PID.TID 0000.0001)                 2.476789293979550E+10,      /* I = 34 */
(PID.TID 0000.0001)                 3.387112505847638E+10,      /* I = 35 */
(PID.TID 0000.0001)                 4.197302689155780E+10,      /* I = 36 */
(PID.TID 0000.0001)                 4.929378289714742E+10,      /* I = 37 */
(PID.TID 0000.0001)                 5.596406977246146E+10,      /* I = 38 */
(PID.TID 0000.0001)                 6.205077247510580E+10,      /* I = 39 */
(PID.TID 0000.0001)                 6.758266883915286E+10,      /* I = 40 */
(PID.TID 0000.0001)                 7.256536165779025E+10,      /* I = 41 */
(PID.TID 0000.0001)                 7.699024655653084E+10,      /* I = 42 */
(PID.TID 0000.0001)                 8.084038186855891E+10,      /* I = 43 */
(PID.TID 0000.0001)                 8.409466866853806E+10,      /* I = 44 */
(PID.TID 0000.0001)                 8.673102186020337E+10,      /* I = 45 */
(PID.TID 0000.0001)                 8.872885597085371E+10,      /* I = 46 */
(PID.TID 0000.0001)                 9.007102933895001E+10,      /* I = 47 */
(PID.TID 0000.0001)     2 @  9.074531328717996E+10,             /* I = 48: 49 */
(PID.TID 0000.0001)                 9.007102933895001E+10,      /* I = 50 */
(PID.TID 0000.0001)                 8.872885597085371E+10,      /* I = 51 */
(PID.TID 0000.0001)                 8.673102186020337E+10,      /* I = 52 */
(PID.TID 0000.0001)                 8.409466866853806E+10,      /* I = 53 */
(PID.TID 0000.0001)                 8.084038186855891E+10,      /* I = 54 */
(PID.TID 0000.0001)                 7.699024655653084E+10,      /* I = 55 */
(PID.TID 0000.0001)                 7.256536165779025E+10,      /* I = 56 */
(PID.TID 0000.0001)                 6.758266883915286E+10,      /* I = 57 */
(PID.TID 0000.0001)                 6.205077247510580E+10,      /* I = 58 */
(PID.TID 0000.0001)                 5.596406977246146E+10,      /* I = 59 */
(PID.TID 0000.0001)                 4.929378289714742E+10,      /* I = 60 */
(PID.TID 0000.0001)                 4.197302689155780E+10,      /* I = 61 */
(PID.TID 0000.0001)                 3.387112505847638E+10,      /* I = 62 */
(PID.TID 0000.0001)                 2.476789293979550E+10,      /* I = 63 */
(PID.TID 0000.0001)     2 @  1.483193709397766E+10,             /* I = 64: 65 */
(PID.TID 0000.0001)                 2.476789293979550E+10,      /* I = 66 */
(PID.TID 0000.0001)                 3.387112505847638E+10,      /* I = 67 */
(PID.TID 0000.0001)                 4.197302689155780E+10,      /* I = 68 */
(PID.TID 0000.0001)                 4.929378289714742E+10,      /* I = 69 */
(PID.TID 0000.0001)                 5.596406977246146E+10,      /* I = 70 */
(PID.TID 0000.0001)                 6.205077247510580E+10,      /* I = 71 */
(PID.TID 0000.0001)                 6.758266883915286E+10,      /* I = 72 */
(PID.TID 0000.0001)                 7.256536165779025E+10,      /* I = 73 */
(PID.TID 0000.0001)                 7.699024655653084E+10,      /* I = 74 */
(PID.TID 0000.0001)                 8.084038186855891E+10,      /* I = 75 */
(PID.TID 0000.0001)                 8.409466866853806E+10,      /* I = 76 */
(PID.TID 0000.0001)                 8.673102186020337E+10,      /* I = 77 */
(PID.TID 0000.0001)                 8.872885597085371E+10,      /* I = 78 */
(PID.TID 0000.0001)                 9.007102933895001E+10,      /* I = 79 */
(PID.TID 0000.0001)     2 @  9.074531328717996E+10,             /* I = 80: 81 */
(PID.TID 0000.0001)                 9.007102933895001E+10,      /* I = 82 */
(PID.TID 0000.0001)                 8.872885597085371E+10,      /* I = 83 */
(PID.TID 0000.0001)                 8.673102186020337E+10,      /* I = 84 */
(PID.TID 0000.0001)                 8.409466866853806E+10,      /* I = 85 */
(PID.TID 0000.0001)                 8.084038186855891E+10,      /* I = 86 */
(PID.TID 0000.0001)                 7.699024655653084E+10,      /* I = 87 */
(PID.TID 0000.0001)                 7.256536165779025E+10,      /* I = 88 */
(PID.TID 0000.0001)                 6.758266883915286E+10,      /* I = 89 */
(PID.TID 0000.0001)                 6.205077247510580E+10,      /* I = 90 */
(PID.TID 0000.0001)                 5.596406977246146E+10,      /* I = 91 */
(PID.TID 0000.0001)                 4.929378289714742E+10,      /* I = 92 */
(PID.TID 0000.0001)                 4.197302689155780E+10,      /* I = 93 */
(PID.TID 0000.0001)                 3.387112505847638E+10,      /* I = 94 */
(PID.TID 0000.0001)                 2.476789293979550E+10,      /* I = 95 */
(PID.TID 0000.0001)     2 @  1.483193709397766E+10,             /* I = 96: 97 */
(PID.TID 0000.0001)                 2.476789293979550E+10,      /* I = 98 */
(PID.TID 0000.0001)                 3.387112505847638E+10,      /* I = 99 */
(PID.TID 0000.0001)                 4.197302689155780E+10,      /* I =100 */
(PID.TID 0000.0001)                 4.929378289714742E+10,      /* I =101 */
(PID.TID 0000.0001)                 5.596406977246146E+10,      /* I =102 */
(PID.TID 0000.0001)                 6.205077247510580E+10,      /* I =103 */
(PID.TID 0000.0001)                 6.758266883915286E+10,      /* I =104 */
(PID.TID 0000.0001)                 7.256536165779025E+10,      /* I =105 */
(PID.TID 0000.0001)                 7.699024655653084E+10,      /* I =106 */
(PID.TID 0000.0001)                 8.084038186855891E+10,      /* I =107 */
(PID.TID 0000.0001)                 8.409466866853806E+10,      /* I =108 */
(PID.TID 0000.0001)                 8.673102186020337E+10,      /* I =109 */
(PID.TID 0000.0001)                 8.872885597085371E+10,      /* I =110 */
(PID.TID 0000.0001)                 9.007102933895001E+10,      /* I =111 */
(PID.TID 0000.0001)     2 @  9.074531328717996E+10,             /* I =112:113 */
(PID.TID 0000.0001)                 9.007102933895001E+10,      /* I =114 */
(PID.TID 0000.0001)                 8.872885597085371E+10,      /* I =115 */
(PID.TID 0000.0001)                 8.673102186020337E+10,      /* I =116 */
(PID.TID 0000.0001)                 8.409466866853806E+10,      /* I =117 */
(PID.TID 0000.0001)                 8.084038186855891E+10,      /* I =118 */
(PID.TID 0000.0001)                 7.699024655653084E+10,      /* I =119 */
(PID.TID 0000.0001)                 7.256536165779025E+10,      /* I =120 */
(PID.TID 0000.0001)                 6.758266883915286E+10,      /* I =121 */
(PID.TID 0000.0001)                 6.205077247510580E+10,      /* I =122 */
(PID.TID 0000.0001)                 5.596406977246146E+10,      /* I =123 */
(PID.TID 0000.0001)                 4.929378289714742E+10,      /* I =124 */
(PID.TID 0000.0001)                 4.197302689155780E+10,      /* I =125 */
(PID.TID 0000.0001)                 3.387112505847638E+10,      /* I =126 */
(PID.TID 0000.0001)                 2.476789293979550E+10,      /* I =127 */
(PID.TID 0000.0001)     2 @  1.483193709397766E+10,             /* I =128:129 */
(PID.TID 0000.0001)                 2.476789293979550E+10,      /* I =130 */
(PID.TID 0000.0001)                 3.387112505847638E+10,      /* I =131 */
(PID.TID 0000.0001)                 4.197302689155780E+10,      /* I =132 */
(PID.TID 0000.0001)                 4.929378289714742E+10,      /* I =133 */
(PID.TID 0000.0001)                 5.596406977246146E+10,      /* I =134 */
(PID.TID 0000.0001)                 6.205077247510580E+10,      /* I =135 */
(PID.TID 0000.0001)                 6.758266883915286E+10,      /* I =136 */
(PID.TID 0000.0001)                 7.256536165779025E+10,      /* I =137 */
(PID.TID 0000.0001)                 7.699024655653084E+10,      /* I =138 */
(PID.TID 0000.0001)                 8.084038186855891E+10,      /* I =139 */
(PID.TID 0000.0001)                 8.409466866853806E+10,      /* I =140 */
(PID.TID 0000.0001)                 8.673102186020337E+10,      /* I =141 */
(PID.TID 0000.0001)                 8.872885597085371E+10,      /* I =142 */
(PID.TID 0000.0001)                 9.007102933895001E+10,      /* I =143 */
(PID.TID 0000.0001)     2 @  9.074531328717996E+10,             /* I =144:145 */
(PID.TID 0000.0001)                 9.007102933895001E+10,      /* I =146 */
(PID.TID 0000.0001)                 8.872885597085371E+10,      /* I =147 */
(PID.TID 0000.0001)                 8.673102186020337E+10,      /* I =148 */
(PID.TID 0000.0001)                 8.409466866853806E+10,      /* I =149 */
(PID.TID 0000.0001)                 8.084038186855891E+10,      /* I =150 */
(PID.TID 0000.0001)                 7.699024655653084E+10,      /* I =151 */
(PID.TID 0000.0001)                 7.256536165779025E+10,      /* I =152 */
(PID.TID 0000.0001)                 6.758266883915286E+10,      /* I =153 */
(PID.TID 0000.0001)                 6.205077247510580E+10,      /* I =154 */
(PID.TID 0000.0001)                 5.596406977246146E+10,      /* I =155 */
(PID.TID 0000.0001)                 4.929378289714742E+10,      /* I =156 */
(PID.TID 0000.0001)                 4.197302689155780E+10,      /* I =157 */
(PID.TID 0000.0001)                 3.387112505847638E+10,      /* I =158 */
(PID.TID 0000.0001)                 2.476789293979550E+10,      /* I =159 */
(PID.TID 0000.0001)     2 @  1.483193709397766E+10,             /* I =160:161 */
(PID.TID 0000.0001)                 2.476789293979550E+10,      /* I =162 */
(PID.TID 0000.0001)                 3.387112505847638E+10,      /* I =163 */
(PID.TID 0000.0001)                 4.197302689155780E+10,      /* I =164 */
(PID.TID 0000.0001)                 4.929378289714742E+10,      /* I =165 */
(PID.TID 0000.0001)                 5.596406977246146E+10,      /* I =166 */
(PID.TID 0000.0001)                 6.205077247510580E+10,      /* I =167 */
(PID.TID 0000.0001)                 6.758266883915286E+10,      /* I =168 */
(PID.TID 0000.0001)                 7.256536165779025E+10,      /* I =169 */
(PID.TID 0000.0001)                 7.699024655653084E+10,      /* I =170 */
(PID.TID 0000.0001)                 8.084038186855891E+10,      /* I =171 */
(PID.TID 0000.0001)                 8.409466866853806E+10,      /* I =172 */
(PID.TID 0000.0001)                 8.673102186020337E+10,      /* I =173 */
(PID.TID 0000.0001)                 8.872885597085371E+10,      /* I =174 */
(PID.TID 0000.0001)                 9.007102933895001E+10,      /* I =175 */
(PID.TID 0000.0001)     2 @  9.074531328717996E+10,             /* I =176:177 */
(PID.TID 0000.0001)                 9.007102933895001E+10,      /* I =178 */
(PID.TID 0000.0001)                 8.872885597085371E+10,      /* I =179 */
(PID.TID 0000.0001)                 8.673102186020337E+10,      /* I =180 */
(PID.TID 0000.0001)                 8.409466866853806E+10,      /* I =181 */
(PID.TID 0000.0001)                 8.084038186855891E+10,      /* I =182 */
(PID.TID 0000.0001)                 7.699024655653084E+10,      /* I =183 */
(PID.TID 0000.0001)                 7.256536165779025E+10,      /* I =184 */
(PID.TID 0000.0001)                 6.758266883915286E+10,      /* I =185 */
(PID.TID 0000.0001)                 6.205077247510580E+10,      /* I =186 */
(PID.TID 0000.0001)                 5.596406977246146E+10,      /* I =187 */
(PID.TID 0000.0001)                 4.929378289714742E+10,      /* I =188 */
(PID.TID 0000.0001)                 4.197302689155780E+10,      /* I =189 */
(PID.TID 0000.0001)                 3.387112505847638E+10,      /* I =190 */
(PID.TID 0000.0001)                 2.476789293979550E+10,      /* I =191 */
(PID.TID 0000.0001)                 1.483193709397766E+10       /* I =192 */
(PID.TID 0000.0001)     ;
(PID.TID 0000.0001) rA =  /* rA(1,:,1,:) ( m - cartesian, degrees - spherical ) */
(PID.TID 0000.0001)                 1.483193709397766E+10,      /* J =  1 */
(PID.TID 0000.0001)                 2.476789293979550E+10,      /* J =  2 */
(PID.TID 0000.0001)                 3.387112505847638E+10,      /* J =  3 */
(PID.TID 0000.0001)                 4.197302689155780E+10,      /* J =  4 */
(PID.TID 0000.0001)                 4.929378289714742E+10,      /* J =  5 */
(PID.TID 0000.0001)                 5.596406977246146E+10,      /* J =  6 */
(PID.TID 0000.0001)                 6.205077247510580E+10,      /* J =  7 */
(PID.TID 0000.0001)                 6.758266883915286E+10,      /* J =  8 */
(PID.TID 0000.0001)                 7.256536165779025E+10,      /* J =  9 */
(PID.TID 0000.0001)                 7.699024655653084E+10,      /* J = 10 */
(PID.TID 0000.0001)                 8.084038186855891E+10,      /* J = 11 */
(PID.TID 0000.0001)                 8.409466866853806E+10,      /* J = 12 */
(PID.TID 0000.0001)                 8.673102186020337E+10,      /* J = 13 */
(PID.TID 0000.0001)                 8.872885597085371E+10,      /* J = 14 */
(PID.TID 0000.0001)                 9.007102933895001E+10,      /* J = 15 */
(PID.TID 0000.0001)     2 @  9.074531328717996E+10,             /* J = 16: 17 */
(PID.TID 0000.0001)                 9.007102933895001E+10,      /* J = 18 */
(PID.TID 0000.0001)                 8.872885597085371E+10,      /* J = 19 */
(PID.TID 0000.0001)                 8.673102186020337E+10,      /* J = 20 */
(PID.TID 0000.0001)                 8.409466866853806E+10,      /* J = 21 */
(PID.TID 0000.0001)                 8.084038186855891E+10,      /* J = 22 */
(PID.TID 0000.0001)                 7.699024655653084E+10,      /* J = 23 */
(PID.TID 0000.0001)                 7.256536165779025E+10,      /* J = 24 */
(PID.TID 0000.0001)                 6.758266883915286E+10,      /* J = 25 */
(PID.TID 0000.0001)                 6.205077247510580E+10,      /* J = 26 */
(PID.TID 0000.0001)                 5.596406977246146E+10,      /* J = 27 */
(PID.TID 0000.0001)                 4.929378289714742E+10,      /* J = 28 */
(PID.TID 0000.0001)                 4.197302689155780E+10,      /* J = 29 */
(PID.TID 0000.0001)                 3.387112505847638E+10,      /* J = 30 */
(PID.TID 0000.0001)                 2.476789293979550E+10,      /* J = 31 */
(PID.TID 0000.0001)                 1.483193709397766E+10       /* J = 32 */
(PID.TID 0000.0001)     ;
(PID.TID 0000.0001) rAw =  /* rAw(:,1,:,1) ( m - cartesian, degrees - spherical ) */
(PID.TID 0000.0001)                 1.241518061276850E+10,      /* I =  1 */
(PID.TID 0000.0001)                 1.979784032141267E+10,      /* I =  2 */
(PID.TID 0000.0001)                 2.946081672068642E+10,      /* I =  3 */
(PID.TID 0000.0001)                 3.803135270871054E+10,      /* I =  4 */
(PID.TID 0000.0001)                 4.572098922333179E+10,      /* I =  5 */
(PID.TID 0000.0001)                 5.270492648776427E+10,      /* I =  6 */
(PID.TID 0000.0001)                 5.907789136457927E+10,      /* I =  7 */
(PID.TID 0000.0001)                 6.488530324370350E+10,      /* I =  8 */
(PID.TID 0000.0001)                 7.014294990279657E+10,      /* I =  9 */
(PID.TID 0000.0001)                 7.484844860455585E+10,      /* I = 10 */
(PID.TID 0000.0001)                 7.898842019812308E+10,      /* I = 11 */
(PID.TID 0000.0001)                 8.254339553226024E+10,      /* I = 12 */
(PID.TID 0000.0001)                 8.549143393905247E+10,      /* I = 13 */
(PID.TID 0000.0001)                 8.781092525894122E+10,      /* I = 14 */
(PID.TID 0000.0001)                 8.948279401613618E+10,      /* I = 15 */
(PID.TID 0000.0001)                 9.049219610247414E+10,      /* I = 16 */
(PID.TID 0000.0001)                 9.082976249073500E+10,      /* I = 17 */
(PID.TID 0000.0001)                 9.049219610247414E+10,      /* I = 18 */
(PID.TID 0000.0001)                 8.948279401613618E+10,      /* I = 19 */
(PID.TID 0000.0001)                 8.781092525894122E+10,      /* I = 20 */
(PID.TID 0000.0001)                 8.549143393905247E+10,      /* I = 21 */
(PID.TID 0000.0001)                 8.254339553226024E+10,      /* I = 22 */
(PID.TID 0000.0001)                 7.898842019812308E+10,      /* I = 23 */
(PID.TID 0000.0001)                 7.484844860455585E+10,      /* I = 24 */
(PID.TID 0000.0001)                 7.014294990279657E+10,      /* I = 25 */
(PID.TID 0000.0001)                 6.488530324370350E+10,      /* I = 26 */
(PID.TID 0000.0001)                 5.907789136457927E+10,      /* I = 27 */
(PID.TID 0000.0001)                 5.270492648776427E+10,      /* I = 28 */
(PID.TID 0000.0001)                 4.572098922333179E+10,      /* I = 29 */
(PID.TID 0000.0001)                 3.803135270871054E+10,      /* I = 30 */
(PID.TID 0000.0001)                 2.946081672068642E+10,      /* I = 31 */
(PID.TID 0000.0001)                 1.979784032141267E+10,      /* I = 32 */
(PID.TID 0000.0001)                 1.241518061276850E+10,      /* I = 33 */
(PID.TID 0000.0001)                 1.979784032141267E+10,      /* I = 34 */
(PID.TID 0000.0001)                 2.946081672068642E+10,      /* I = 35 */
(PID.TID 0000.0001)                 3.803135270871054E+10,      /* I = 36 */
(PID.TID 0000.0001)                 4.572098922333179E+10,      /* I = 37 */
(PID.TID 0000.0001)                 5.270492648776427E+10,      /* I = 38 */
(PID.TID 0000.0001)                 5.907789136457927E+10,      /* I = 39 */
(PID.TID 0000.0001)                 6.488530324370350E+10,      /* I = 40 */
(PID.TID 0000.0001)                 7.014294990279657E+10,      /* I = 41 */
(PID.TID 0000.0001)                 7.484844860455585E+10,      /* I = 42 */
(PID.TID 0000.0001)                 7.898842019812308E+10,      /* I = 43 */
(PID.TID 0000.0001)                 8.254339553226024E+10,      /* I = 44 */
(PID.TID 0000.0001)                 8.549143393905247E+10,      /* I = 45 */
(PID.TID 0000.0001)                 8.781092525894122E+10,      /* I = 46 */
(PID.TID 0000.0001)                 8.948279401613618E+10,      /* I = 47 */
(PID.TID 0000.0001)                 9.049219610247414E+10,      /* I = 48 */
(PID.TID 0000.0001)                 9.082976249073500E+10,      /* I = 49 */
(PID.TID 0000.0001)                 9.049219610247414E+10,      /* I = 50 */
(PID.TID 0000.0001)                 8.948279401613618E+10,      /* I = 51 */
(PID.TID 0000.0001)                 8.781092525894122E+10,      /* I = 52 */
(PID.TID 0000.0001)                 8.549143393905247E+10,      /* I = 53 */
(PID.TID 0000.0001)                 8.254339553226024E+10,      /* I = 54 */
(PID.TID 0000.0001)                 7.898842019812308E+10,      /* I = 55 */
(PID.TID 0000.0001)                 7.484844860455585E+10,      /* I = 56 */
(PID.TID 0000.0001)                 7.014294990279657E+10,      /* I = 57 */
(PID.TID 0000.0001)                 6.488530324370350E+10,      /* I = 58 */
(PID.TID 0000.0001)                 5.907789136457927E+10,      /* I = 59 */
(PID.TID 0000.0001)                 5.270492648776427E+10,      /* I = 60 */
(PID.TID 0000.0001)                 4.572098922333179E+10,      /* I = 61 */
(PID.TID 0000.0001)                 3.803135270871054E+10,      /* I = 62 */
(PID.TID 0000.0001)                 2.946081672068642E+10,      /* I = 63 */
(PID.TID 0000.0001)                 1.979784032141267E+10,      /* I = 64 */
(PID.TID 0000.0001)                 1.241518061276850E+10,      /* I = 65 */
(PID.TID 0000.0001)                 1.979784032141267E+10,      /* I = 66 */
(PID.TID 0000.0001)                 2.946081672068642E+10,      /* I = 67 */
(PID.TID 0000.0001)                 3.803135270871054E+10,      /* I = 68 */
(PID.TID 0000.0001)                 4.572098922333179E+10,      /* I = 69 */
(PID.TID 0000.0001)                 5.270492648776427E+10,      /* I = 70 */
(PID.TID 0000.0001)                 5.907789136457927E+10,      /* I = 71 */
(PID.TID 0000.0001)                 6.488530324370350E+10,      /* I = 72 */
(PID.TID 0000.0001)                 7.014294990279657E+10,      /* I = 73 */
(PID.TID 0000.0001)                 7.484844860455585E+10,      /* I = 74 */
(PID.TID 0000.0001)                 7.898842019812308E+10,      /* I = 75 */
(PID.TID 0000.0001)                 8.254339553226024E+10,      /* I = 76 */
(PID.TID 0000.0001)                 8.549143393905247E+10,      /* I = 77 */
(PID.TID 0000.0001)                 8.781092525894122E+10,      /* I = 78 */
(PID.TID 0000.0001)                 8.948279401613618E+10,      /* I = 79 */
(PID.TID 0000.0001)                 9.049219610247414E+10,      /* I = 80 */
(PID.TID 0000.0001)                 9.082976249073500E+10,      /* I = 81 */
(PID.TID 0000.0001)                 9.049219610247414E+10,      /* I = 82 */
(PID.TID 0000.0001)                 8.948279401613618E+10,      /* I = 83 */
(PID.TID 0000.0001)                 8.781092525894122E+10,      /* I = 84 */
(PID.TID 0000.0001)                 8.549143393905247E+10,      /* I = 85 */
(PID.TID 0000.0001)                 8.254339553226024E+10,      /* I = 86 */
(PID.TID 0000.0001)                 7.898842019812308E+10,      /* I = 87 */
(PID.TID 0000.0001)                 7.484844860455585E+10,      /* I = 88 */
(PID.TID 0000.0001)                 7.014294990279657E+10,      /* I = 89 */
(PID.TID 0000.0001)                 6.488530324370350E+10,      /* I = 90 */
(PID.TID 0000.0001)                 5.907789136457927E+10,      /* I = 91 */
(PID.TID 0000.0001)                 5.270492648776427E+10,      /* I = 92 */
(PID.TID 0000.0001)                 4.572098922333179E+10,      /* I = 93 */
(PID.TID 0000.0001)                 3.803135270871054E+10,      /* I = 94 */
(PID.TID 0000.0001)                 2.946081672068642E+10,      /* I = 95 */
(PID.TID 0000.0001)                 1.979784032141267E+10,      /* I = 96 */
(PID.TID 0000.0001)                 1.241518061276850E+10,      /* I = 97 */
(PID.TID 0000.0001)                 1.979784032141267E+10,      /* I = 98 */
(PID.TID 0000.0001)                 2.946081672068642E+10,      /* I = 99 */
(PID.TID 0000.0001)                 3.803135270871054E+10,      /* I =100 */
(PID.TID 0000.0001)                 4.572098922333179E+10,      /* I =101 */
(PID.TID 0000.0001)                 5.270492648776427E+10,      /* I =102 */
(PID.TID 0000.0001)                 5.907789136457927E+10,      /* I =103 */
(PID.TID 0000.0001)                 6.488530324370350E+10,      /* I =104 */
(PID.TID 0000.0001)                 7.014294990279657E+10,      /* I =105 */
(PID.TID 0000.0001)                 7.484844860455585E+10,      /* I =106 */
(PID.TID 0000.0001)                 7.898842019812308E+10,      /* I =107 */
(PID.TID 0000.0001)                 8.254339553226024E+10,      /* I =108 */
(PID.TID 0000.0001)                 8.549143393905247E+10,      /* I =109 */
(PID.TID 0000.0001)                 8.781092525894122E+10,      /* I =110 */
(PID.TID 0000.0001)                 8.948279401613618E+10,      /* I =111 */
(PID.TID 0000.0001)                 9.049219610247414E+10,      /* I =112 */
(PID.TID 0000.0001)                 9.082976249073500E+10,      /* I =113 */
(PID.TID 0000.0001)                 9.049219610247414E+10,      /* I =114 */
(PID.TID 0000.0001)                 8.948279401613618E+10,      /* I =115 */
(PID.TID 0000.0001)                 8.781092525894122E+10,      /* I =116 */
(PID.TID 0000.0001)                 8.549143393905247E+10,      /* I =117 */
(PID.TID 0000.0001)                 8.254339553226024E+10,      /* I =118 */
(PID.TID 0000.0001)                 7.898842019812308E+10,      /* I =119 */
(PID.TID 0000.0001)                 7.484844860455585E+10,      /* I =120 */
(PID.TID 0000.0001)                 7.014294990279657E+10,      /* I =121 */
(PID.TID 0000.0001)                 6.488530324370350E+10,      /* I =122 */
(PID.TID 0000.0001)                 5.907789136457927E+10,      /* I =123 */
(PID.TID 0000.0001)                 5.270492648776427E+10,      /* I =124 */
(PID.TID 0000.0001)                 4.572098922333179E+10,      /* I =125 */
(PID.TID 0000.0001)                 3.803135270871054E+10,      /* I =126 */
(PID.TID 0000.0001)                 2.946081672068642E+10,      /* I =127 */
(PID.TID 0000.0001)                 1.979784032141267E+10,      /* I =128 */
(PID.TID 0000.0001)                 1.241518061276850E+10,      /* I =129 */
(PID.TID 0000.0001)                 1.979784032141267E+10,      /* I =130 */
(PID.TID 0000.0001)                 2.946081672068642E+10,      /* I =131 */
(PID.TID 0000.0001)                 3.803135270871054E+10,      /* I =132 */
(PID.TID 0000.0001)                 4.572098922333179E+10,      /* I =133 */
(PID.TID 0000.0001)                 5.270492648776427E+10,      /* I =134 */
(PID.TID 0000.0001)                 5.907789136457927E+10,      /* I =135 */
(PID.TID 0000.0001)                 6.488530324370350E+10,      /* I =136 */
(PID.TID 0000.0001)                 7.014294990279657E+10,      /* I =137 */
(PID.TID 0000.0001)                 7.484844860455585E+10,      /* I =138 */
(PID.TID 0000.0001)                 7.898842019812308E+10,      /* I =139 */
(PID.TID 0000.0001)                 8.254339553226024E+10,      /* I =140 */
(PID.TID 0000.0001)                 8.549143393905247E+10,      /* I =141 */
(PID.TID 0000.0001)                 8.781092525894122E+10,      /* I =142 */
(PID.TID 0000.0001)                 8.948279401613618E+10,      /* I =143 */
(PID.TID 0000.0001)                 9.049219610247414E+10,      /* I =144 */
(PID.TID 0000.0001)                 9.082976249073500E+10,      /* I =145 */
(PID.TID 0000.0001)                 9.049219610247414E+10,      /* I =146 */
(PID.TID 0000.0001)                 8.948279401613618E+10,      /* I =147 */
(PID.TID 0000.0001)                 8.781092525894122E+10,      /* I =148 */
(PID.TID 0000.0001)                 8.549143393905247E+10,      /* I =149 */
(PID.TID 0000.0001)                 8.254339553226024E+10,      /* I =150 */
(PID.TID 0000.0001)                 7.898842019812308E+10,      /* I =151 */
(PID.TID 0000.0001)                 7.484844860455585E+10,      /* I =152 */
(PID.TID 0000.0001)                 7.014294990279657E+10,      /* I =153 */
(PID.TID 0000.0001)                 6.488530324370350E+10,      /* I =154 */
(PID.TID 0000.0001)                 5.907789136457927E+10,      /* I =155 */
(PID.TID 0000.0001)                 5.270492648776427E+10,      /* I =156 */
(PID.TID 0000.0001)                 4.572098922333179E+10,      /* I =157 */
(PID.TID 0000.0001)                 3.803135270871054E+10,      /* I =158 */
(PID.TID 0000.0001)                 2.946081672068642E+10,      /* I =159 */
(PID.TID 0000.0001)                 1.979784032141267E+10,      /* I =160 */
(PID.TID 0000.0001)                 1.241518061276850E+10,      /* I =161 */
(PID.TID 0000.0001)                 1.979784032141267E+10,      /* I =162 */
(PID.TID 0000.0001)                 2.946081672068642E+10,      /* I =163 */
(PID.TID 0000.0001)                 3.803135270871054E+10,      /* I =164 */
(PID.TID 0000.0001)                 4.572098922333179E+10,      /* I =165 */
(PID.TID 0000.0001)                 5.270492648776427E+10,      /* I =166 */
(PID.TID 0000.0001)                 5.907789136457927E+10,      /* I =167 */
(PID.TID 0000.0001)                 6.488530324370350E+10,      /* I =168 */
(PID.TID 0000.0001)                 7.014294990279657E+10,      /* I =169 */
(PID.TID 0000.0001)                 7.484844860455585E+10,      /* I =170 */
(PID.TID 0000.0001)                 7.898842019812308E+10,      /* I =171 */
(PID.TID 0000.0001)                 8.254339553226024E+10,      /* I =172 */
(PID.TID 0000.0001)                 8.549143393905247E+10,      /* I =173 */
(PID.TID 0000.0001)                 8.781092525894122E+10,      /* I =174 */
(PID.TID 0000.0001)                 8.948279401613618E+10,      /* I =175 */
(PID.TID 0000.0001)                 9.049219610247414E+10,      /* I =176 */
(PID.TID 0000.0001)                 9.082976249073500E+10,      /* I =177 */
(PID.TID 0000.0001)                 9.049219610247414E+10,      /* I =178 */
(PID.TID 0000.0001)                 8.948279401613618E+10,      /* I =179 */
(PID.TID 0000.0001)                 8.781092525894122E+10,      /* I =180 */
(PID.TID 0000.0001)                 8.549143393905247E+10,      /* I =181 */
(PID.TID 0000.0001)                 8.254339553226024E+10,      /* I =182 */
(PID.TID 0000.0001)                 7.898842019812308E+10,      /* I =183 */
(PID.TID 0000.0001)                 7.484844860455585E+10,      /* I =184 */
(PID.TID 0000.0001)                 7.014294990279657E+10,      /* I =185 */
(PID.TID 0000.0001)                 6.488530324370350E+10,      /* I =186 */
(PID.TID 0000.0001)                 5.907789136457927E+10,      /* I =187 */
(PID.TID 0000.0001)                 5.270492648776427E+10,      /* I =188 */
(PID.TID 0000.0001)                 4.572098922333179E+10,      /* I =189 */
(PID.TID 0000.0001)                 3.803135270871054E+10,      /* I =190 */
(PID.TID 0000.0001)                 2.946081672068642E+10,      /* I =191 */
(PID.TID 0000.0001)                 1.979784032141267E+10       /* I =192 */
(PID.TID 0000.0001)     ;
(PID.TID 0000.0001) rAw =  /* rAw(1,:,1,:) ( m - cartesian, degrees - spherical ) */
(PID.TID 0000.0001)                 1.241518061276850E+10,      /* J =  1 */
(PID.TID 0000.0001)                 2.393793937228070E+10,      /* J =  2 */
(PID.TID 0000.0001)                 3.343760957395816E+10,      /* J =  3 */
(PID.TID 0000.0001)                 4.169613171585213E+10,      /* J =  4 */
(PID.TID 0000.0001)                 4.909775059622826E+10,      /* J =  5 */
(PID.TID 0000.0001)                 5.581661164420262E+10,      /* J =  6 */
(PID.TID 0000.0001)                 6.193540432691364E+10,      /* J =  7 */
(PID.TID 0000.0001)                 6.748988037450198E+10,      /* J =  8 */
(PID.TID 0000.0001)                 7.248914191201054E+10,      /* J =  9 */
(PID.TID 0000.0001)                 7.692650633841550E+10,      /* J = 10 */
(PID.TID 0000.0001)                 8.078615851706480E+10,      /* J = 11 */
(PID.TID 0000.0001)                 8.404769146494269E+10,      /* J = 12 */
(PID.TID 0000.0001)                 8.668945829241028E+10,      /* J = 13 */
(PID.TID 0000.0001)                 8.869115459489229E+10,      /* J = 14 */
(PID.TID 0000.0001)                 9.003581649199794E+10,      /* J = 15 */
(PID.TID 0000.0001)     2 @  9.071132029984613E+10,             /* J = 16: 17 */
(PID.TID 0000.0001)                 9.003581649199794E+10,      /* J = 18 */
(PID.TID 0000.0001)                 8.869115459489229E+10,      /* J = 19 */
(PID.TID 0000.0001)                 8.668945829241028E+10,      /* J = 20 */
(PID.TID 0000.0001)                 8.404769146494269E+10,      /* J = 21 */
(PID.TID 0000.0001)                 8.078615851706480E+10,      /* J = 22 */
(PID.TID 0000.0001)                 7.692650633841550E+10,      /* J = 23 */
(PID.TID 0000.0001)                 7.248914191201054E+10,      /* J = 24 */
(PID.TID 0000.0001)                 6.748988037450198E+10,      /* J = 25 */
(PID.TID 0000.0001)                 6.193540432691364E+10,      /* J = 26 */
(PID.TID 0000.0001)                 5.581661164420262E+10,      /* J = 27 */
(PID.TID 0000.0001)                 4.909775059622826E+10,      /* J = 28 */
(PID.TID 0000.0001)                 4.169613171585213E+10,      /* J = 29 */
(PID.TID 0000.0001)                 3.343760957395816E+10,      /* J = 30 */
(PID.TID 0000.0001)                 2.393793937228070E+10,      /* J = 31 */
(PID.TID 0000.0001)                 1.241518061276850E+10       /* J = 32 */
(PID.TID 0000.0001)     ;
(PID.TID 0000.0001) rAs =  /* rAs(:,1,:,1) ( m - cartesian, degrees - spherical ) */
(PID.TID 0000.0001)                 1.241518061276850E+10,      /* I =  1 */
(PID.TID 0000.0001)                 2.393793937228070E+10,      /* I =  2 */
(PID.TID 0000.0001)                 3.343760957395816E+10,      /* I =  3 */
(PID.TID 0000.0001)                 4.169613171585213E+10,      /* I =  4 */
(PID.TID 0000.0001)                 4.909775059622826E+10,      /* I =  5 */
(PID.TID 0000.0001)                 5.581661164420262E+10,      /* I =  6 */
(PID.TID 0000.0001)                 6.193540432691364E+10,      /* I =  7 */
(PID.TID 0000.0001)                 6.748988037450198E+10,      /* I =  8 */
(PID.TID 0000.0001)                 7.248914191201054E+10,      /* I =  9 */
(PID.TID 0000.0001)                 7.692650633841550E+10,      /* I = 10 */
(PID.TID 0000.0001)                 8.078615851706480E+10,      /* I = 11 */
(PID.TID 0000.0001)                 8.404769146494269E+10,      /* I = 12 */
(PID.TID 0000.0001)                 8.668945829241028E+10,      /* I = 13 */
(PID.TID 0000.0001)                 8.869115459489229E+10,      /* I = 14 */
(PID.TID 0000.0001)                 9.003581649199794E+10,      /* I = 15 */
(PID.TID 0000.0001)     2 @  9.071132029984613E+10,             /* I = 16: 17 */
(PID.TID 0000.0001)                 9.003581649199794E+10,      /* I = 18 */
(PID.TID 0000.0001)                 8.869115459489229E+10,      /* I = 19 */
(PID.TID 0000.0001)                 8.668945829241028E+10,      /* I = 20 */
(PID.TID 0000.0001)                 8.404769146494269E+10,      /* I = 21 */
(PID.TID 0000.0001)                 8.078615851706480E+10,      /* I = 22 */
(PID.TID 0000.0001)                 7.692650633841550E+10,      /* I = 23 */
(PID.TID 0000.0001)                 7.248914191201054E+10,      /* I = 24 */
(PID.TID 0000.0001)                 6.748988037450198E+10,      /* I = 25 */
(PID.TID 0000.0001)                 6.193540432691364E+10,      /* I = 26 */
(PID.TID 0000.0001)                 5.581661164420262E+10,      /* I = 27 */
(PID.TID 0000.0001)                 4.909775059622826E+10,      /* I = 28 */
(PID.TID 0000.0001)                 4.169613171585213E+10,      /* I = 29 */
(PID.TID 0000.0001)                 3.343760957395816E+10,      /* I = 30 */
(PID.TID 0000.0001)                 2.393793937228070E+10,      /* I = 31 */
(PID.TID 0000.0001)     2 @  1.241518061276850E+10,             /* I = 32: 33 */
(PID.TID 0000.0001)                 2.393793937228070E+10,      /* I = 34 */
(PID.TID 0000.0001)                 3.343760957395816E+10,      /* I = 35 */
(PID.TID 0000.0001)                 4.169613171585213E+10,      /* I = 36 */
(PID.TID 0000.0001)                 4.909775059622826E+10,      /* I = 37 */
(PID.TID 0000.0001)                 5.581661164420262E+10,      /* I = 38 */
(PID.TID 0000.0001)                 6.193540432691364E+10,      /* I = 39 */
(PID.TID 0000.0001)                 6.748988037450198E+10,      /* I = 40 */
(PID.TID 0000.0001)                 7.248914191201054E+10,      /* I = 41 */
(PID.TID 0000.0001)                 7.692650633841550E+10,      /* I = 42 */
(PID.TID 0000.0001)                 8.078615851706480E+10,      /* I = 43 */
(PID.TID 0000.0001)                 8.404769146494269E+10,      /* I = 44 */
(PID.TID 0000.0001)                 8.668945829241028E+10,      /* I = 45 */
(PID.TID 0000.0001)                 8.869115459489229E+10,      /* I = 46 */
(PID.TID 0000.0001)                 9.003581649199794E+10,      /* I = 47 */
(PID.TID 0000.0001)     2 @  9.071132029984613E+10,             /* I = 48: 49 */
(PID.TID 0000.0001)                 9.003581649199794E+10,      /* I = 50 */
(PID.TID 0000.0001)                 8.869115459489229E+10,      /* I = 51 */
(PID.TID 0000.0001)                 8.668945829241028E+10,      /* I = 52 */
(PID.TID 0000.0001)                 8.404769146494269E+10,      /* I = 53 */
(PID.TID 0000.0001)                 8.078615851706480E+10,      /* I = 54 */
(PID.TID 0000.0001)                 7.692650633841550E+10,      /* I = 55 */
(PID.TID 0000.0001)                 7.248914191201054E+10,      /* I = 56 */
(PID.TID 0000.0001)                 6.748988037450198E+10,      /* I = 57 */
(PID.TID 0000.0001)                 6.193540432691364E+10,      /* I = 58 */
(PID.TID 0000.0001)                 5.581661164420262E+10,      /* I = 59 */
(PID.TID 0000.0001)                 4.909775059622826E+10,      /* I = 60 */
(PID.TID 0000.0001)                 4.169613171585213E+10,      /* I = 61 */
(PID.TID 0000.0001)                 3.343760957395816E+10,      /* I = 62 */
(PID.TID 0000.0001)                 2.393793937228070E+10,      /* I = 63 */
(PID.TID 0000.0001)     2 @  1.241518061276850E+10,             /* I = 64: 65 */
(PID.TID 0000.0001)                 2.393793937228070E+10,      /* I = 66 */
(PID.TID 0000.0001)                 3.343760957395816E+10,      /* I = 67 */
(PID.TID 0000.0001)                 4.169613171585213E+10,      /* I = 68 */
(PID.TID 0000.0001)                 4.909775059622826E+10,      /* I = 69 */
(PID.TID 0000.0001)                 5.581661164420262E+10,      /* I = 70 */
(PID.TID 0000.0001)                 6.193540432691364E+10,      /* I = 71 */
(PID.TID 0000.0001)                 6.748988037450198E+10,      /* I = 72 */
(PID.TID 0000.0001)                 7.248914191201054E+10,      /* I = 73 */
(PID.TID 0000.0001)                 7.692650633841550E+10,      /* I = 74 */
(PID.TID 0000.0001)                 8.078615851706480E+10,      /* I = 75 */
(PID.TID 0000.0001)                 8.404769146494269E+10,      /* I = 76 */
(PID.TID 0000.0001)                 8.668945829241028E+10,      /* I = 77 */
(PID.TID 0000.0001)                 8.869115459489229E+10,      /* I = 78 */
(PID.TID 0000.0001)                 9.003581649199794E+10,      /* I = 79 */
(PID.TID 0000.0001)     2 @  9.071132029984613E+10,             /* I = 80: 81 */
(PID.TID 0000.0001)                 9.003581649199794E+10,      /* I = 82 */
(PID.TID 0000.0001)                 8.869115459489229E+10,      /* I = 83 */
(PID.TID 0000.0001)                 8.668945829241028E+10,      /* I = 84 */
(PID.TID 0000.0001)                 8.404769146494269E+10,      /* I = 85 */
(PID.TID 0000.0001)                 8.078615851706480E+10,      /* I = 86 */
(PID.TID 0000.0001)                 7.692650633841550E+10,      /* I = 87 */
(PID.TID 0000.0001)                 7.248914191201054E+10,      /* I = 88 */
(PID.TID 0000.0001)                 6.748988037450198E+10,      /* I = 89 */
(PID.TID 0000.0001)                 6.193540432691364E+10,      /* I = 90 */
(PID.TID 0000.0001)                 5.581661164420262E+10,      /* I = 91 */
(PID.TID 0000.0001)                 4.909775059622826E+10,      /* I = 92 */
(PID.TID 0000.0001)                 4.169613171585213E+10,      /* I = 93 */
(PID.TID 0000.0001)                 3.343760957395816E+10,      /* I = 94 */
(PID.TID 0000.0001)                 2.393793937228070E+10,      /* I = 95 */
(PID.TID 0000.0001)     2 @  1.241518061276850E+10,             /* I = 96: 97 */
(PID.TID 0000.0001)                 2.393793937228070E+10,      /* I = 98 */
(PID.TID 0000.0001)                 3.343760957395816E+10,      /* I = 99 */
(PID.TID 0000.0001)                 4.169613171585213E+10,      /* I =100 */
(PID.TID 0000.0001)                 4.909775059622826E+10,      /* I =101 */
(PID.TID 0000.0001)                 5.581661164420262E+10,      /* I =102 */
(PID.TID 0000.0001)                 6.193540432691364E+10,      /* I =103 */
(PID.TID 0000.0001)                 6.748988037450198E+10,      /* I =104 */
(PID.TID 0000.0001)                 7.248914191201054E+10,      /* I =105 */
(PID.TID 0000.0001)                 7.692650633841550E+10,      /* I =106 */
(PID.TID 0000.0001)                 8.078615851706480E+10,      /* I =107 */
(PID.TID 0000.0001)                 8.404769146494269E+10,      /* I =108 */
(PID.TID 0000.0001)                 8.668945829241028E+10,      /* I =109 */
(PID.TID 0000.0001)                 8.869115459489229E+10,      /* I =110 */
(PID.TID 0000.0001)                 9.003581649199794E+10,      /* I =111 */
(PID.TID 0000.0001)     2 @  9.071132029984613E+10,             /* I =112:113 */
(PID.TID 0000.0001)                 9.003581649199794E+10,      /* I =114 */
(PID.TID 0000.0001)                 8.869115459489229E+10,      /* I =115 */
(PID.TID 0000.0001)                 8.668945829241028E+10,      /* I =116 */
(PID.TID 0000.0001)                 8.404769146494269E+10,      /* I =117 */
(PID.TID 0000.0001)                 8.078615851706480E+10,      /* I =118 */
(PID.TID 0000.0001)                 7.692650633841550E+10,      /* I =119 */
(PID.TID 0000.0001)                 7.248914191201054E+10,      /* I =120 */
(PID.TID 0000.0001)                 6.748988037450198E+10,      /* I =121 */
(PID.TID 0000.0001)                 6.193540432691364E+10,      /* I =122 */
(PID.TID 0000.0001)                 5.581661164420262E+10,      /* I =123 */
(PID.TID 0000.0001)                 4.909775059622826E+10,      /* I =124 */
(PID.TID 0000.0001)                 4.169613171585213E+10,      /* I =125 */
(PID.TID 0000.0001)                 3.343760957395816E+10,      /* I =126 */
(PID.TID 0000.0001)                 2.393793937228070E+10,      /* I =127 */
(PID.TID 0000.0001)     2 @  1.241518061276850E+10,             /* I =128:129 */
(PID.TID 0000.0001)                 2.393793937228070E+10,      /* I =130 */
(PID.TID 0000.0001)                 3.343760957395816E+10,      /* I =131 */
(PID.TID 0000.0001)                 4.169613171585213E+10,      /* I =132 */
(PID.TID 0000.0001)                 4.909775059622826E+10,      /* I =133 */
(PID.TID 0000.0001)                 5.581661164420262E+10,      /* I =134 */
(PID.TID 0000.0001)                 6.193540432691364E+10,      /* I =135 */
(PID.TID 0000.0001)                 6.748988037450198E+10,      /* I =136 */
(PID.TID 0000.0001)                 7.248914191201054E+10,      /* I =137 */
(PID.TID 0000.0001)                 7.692650633841550E+10,      /* I =138 */
(PID.TID 0000.0001)                 8.078615851706480E+10,      /* I =139 */
(PID.TID 0000.0001)                 8.404769146494269E+10,      /* I =140 */
(PID.TID 0000.0001)                 8.668945829241028E+10,      /* I =141 */
(PID.TID 0000.0001)                 8.869115459489229E+10,      /* I =142 */
(PID.TID 0000.0001)                 9.003581649199794E+10,      /* I =143 */
(PID.TID 0000.0001)     2 @  9.071132029984613E+10,             /* I =144:145 */
(PID.TID 0000.0001)                 9.003581649199794E+10,      /* I =146 */
(PID.TID 0000.0001)                 8.869115459489229E+10,      /* I =147 */
(PID.TID 0000.0001)                 8.668945829241028E+10,      /* I =148 */
(PID.TID 0000.0001)                 8.404769146494269E+10,      /* I =149 */
(PID.TID 0000.0001)                 8.078615851706480E+10,      /* I =150 */
(PID.TID 0000.0001)                 7.692650633841550E+10,      /* I =151 */
(PID.TID 0000.0001)                 7.248914191201054E+10,      /* I =152 */
(PID.TID 0000.0001)                 6.748988037450198E+10,      /* I =153 */
(PID.TID 0000.0001)                 6.193540432691364E+10,      /* I =154 */
(PID.TID 0000.0001)                 5.581661164420262E+10,      /* I =155 */
(PID.TID 0000.0001)                 4.909775059622826E+10,      /* I =156 */
(PID.TID 0000.0001)                 4.169613171585213E+10,      /* I =157 */
(PID.TID 0000.0001)                 3.343760957395816E+10,      /* I =158 */
(PID.TID 0000.0001)                 2.393793937228070E+10,      /* I =159 */
(PID.TID 0000.0001)     2 @  1.241518061276850E+10,             /* I =160:161 */
(PID.TID 0000.0001)                 2.393793937228070E+10,      /* I =162 */
(PID.TID 0000.0001)                 3.343760957395816E+10,      /* I =163 */
(PID.TID 0000.0001)                 4.169613171585213E+10,      /* I =164 */
(PID.TID 0000.0001)                 4.909775059622826E+10,      /* I =165 */
(PID.TID 0000.0001)                 5.581661164420262E+10,      /* I =166 */
(PID.TID 0000.0001)                 6.193540432691364E+10,      /* I =167 */
(PID.TID 0000.0001)                 6.748988037450198E+10,      /* I =168 */
(PID.TID 0000.0001)                 7.248914191201054E+10,      /* I =169 */
(PID.TID 0000.0001)                 7.692650633841550E+10,      /* I =170 */
(PID.TID 0000.0001)                 8.078615851706480E+10,      /* I =171 */
(PID.TID 0000.0001)                 8.404769146494269E+10,      /* I =172 */
(PID.TID 0000.0001)                 8.668945829241028E+10,      /* I =173 */
(PID.TID 0000.0001)                 8.869115459489229E+10,      /* I =174 */
(PID.TID 0000.0001)                 9.003581649199794E+10,      /* I =175 */
(PID.TID 0000.0001)     2 @  9.071132029984613E+10,             /* I =176:177 */
(PID.TID 0000.0001)                 9.003581649199794E+10,      /* I =178 */
(PID.TID 0000.0001)                 8.869115459489229E+10,      /* I =179 */
(PID.TID 0000.0001)                 8.668945829241028E+10,      /* I =180 */
(PID.TID 0000.0001)                 8.404769146494269E+10,      /* I =181 */
(PID.TID 0000.0001)                 8.078615851706480E+10,      /* I =182 */
(PID.TID 0000.0001)                 7.692650633841550E+10,      /* I =183 */
(PID.TID 0000.0001)                 7.248914191201054E+10,      /* I =184 */
(PID.TID 0000.0001)                 6.748988037450198E+10,      /* I =185 */
(PID.TID 0000.0001)                 6.193540432691364E+10,      /* I =186 */
(PID.TID 0000.0001)                 5.581661164420262E+10,      /* I =187 */
(PID.TID 0000.0001)                 4.909775059622826E+10,      /* I =188 */
(PID.TID 0000.0001)                 4.169613171585213E+10,      /* I =189 */
(PID.TID 0000.0001)                 3.343760957395816E+10,      /* I =190 */
(PID.TID 0000.0001)                 2.393793937228070E+10,      /* I =191 */
(PID.TID 0000.0001)                 1.241518061276850E+10       /* I =192 */
(PID.TID 0000.0001)     ;
(PID.TID 0000.0001) rAs =  /* rAs(1,:,1,:) ( m - cartesian, degrees - spherical ) */
(PID.TID 0000.0001)                 1.241518061276850E+10,      /* J =  1 */
(PID.TID 0000.0001)                 1.979784032141267E+10,      /* J =  2 */
(PID.TID 0000.0001)                 2.946081672068642E+10,      /* J =  3 */
(PID.TID 0000.0001)                 3.803135270871054E+10,      /* J =  4 */
(PID.TID 0000.0001)                 4.572098922333179E+10,      /* J =  5 */
(PID.TID 0000.0001)                 5.270492648776427E+10,      /* J =  6 */
(PID.TID 0000.0001)                 5.907789136457927E+10,      /* J =  7 */
(PID.TID 0000.0001)                 6.488530324370350E+10,      /* J =  8 */
(PID.TID 0000.0001)                 7.014294990279657E+10,      /* J =  9 */
(PID.TID 0000.0001)                 7.484844860455585E+10,      /* J = 10 */
(PID.TID 0000.0001)                 7.898842019812308E+10,      /* J = 11 */
(PID.TID 0000.0001)                 8.254339553226024E+10,      /* J = 12 */
(PID.TID 0000.0001)                 8.549143393905247E+10,      /* J = 13 */
(PID.TID 0000.0001)                 8.781092525894122E+10,      /* J = 14 */
(PID.TID 0000.0001)                 8.948279401613618E+10,      /* J = 15 */
(PID.TID 0000.0001)                 9.049219610247414E+10,      /* J = 16 */
(PID.TID 0000.0001)                 9.082976249073500E+10,      /* J = 17 */
(PID.TID 0000.0001)                 9.049219610247414E+10,      /* J = 18 */
(PID.TID 0000.0001)                 8.948279401613618E+10,      /* J = 19 */
(PID.TID 0000.0001)                 8.781092525894122E+10,      /* J = 20 */
(PID.TID 0000.0001)                 8.549143393905247E+10,      /* J = 21 */
(PID.TID 0000.0001)                 8.254339553226024E+10,      /* J = 22 */
(PID.TID 0000.0001)                 7.898842019812308E+10,      /* J = 23 */
(PID.TID 0000.0001)                 7.484844860455585E+10,      /* J = 24 */
(PID.TID 0000.0001)                 7.014294990279657E+10,      /* J = 25 */
(PID.TID 0000.0001)                 6.488530324370350E+10,      /* J = 26 */
(PID.TID 0000.0001)                 5.907789136457927E+10,      /* J = 27 */
(PID.TID 0000.0001)                 5.270492648776427E+10,      /* J = 28 */
(PID.TID 0000.0001)                 4.572098922333179E+10,      /* J = 29 */
(PID.TID 0000.0001)                 3.803135270871054E+10,      /* J = 30 */
(PID.TID 0000.0001)                 2.946081672068642E+10,      /* J = 31 */
(PID.TID 0000.0001)                 1.979784032141267E+10       /* J = 32 */
(PID.TID 0000.0001)     ;
(PID.TID 0000.0001) 
(PID.TID 0000.0001)  MDSREADFIELD: opening global file: T.init
(PID.TID 0000.0001) // =======================================================
(PID.TID 0000.0001) // Field Initial Temperature at iteration          1
(PID.TID 0000.0001) // CMIN =          1.000000000000000E+00
(PID.TID 0000.0001) // CMAX =          1.965003298207243E+00
(PID.TID 0000.0001) // CINT =          3.574086289656456E-02
(PID.TID 0000.0001) // SYMBOLS (CMIN->CMAX): -abcdefghijklmnopqrstuvwxyz+
(PID.TID 0000.0001) //                  0.0: .
(PID.TID 0000.0001) // RANGE I (Lo:Hi:Step):(   1: 192:   1)
(PID.TID 0000.0001) // RANGE J (Lo:Hi:Step):(  32:   1:  -1)
(PID.TID 0000.0001) // RANGE K (Lo:Hi:Step):(   1:   1:   1)
(PID.TID 0000.0001) // =======================================================
(PID.TID 0000.0001) K =   1
(PID.TID 0000.0001)                I=10      I=20      I=30      I=40      I=50      I=60      I=70      I=80      I=90      I=100     I=110     I=120     I=130     I=140     I=150     I=160     I=170     I=180     I=190
(PID.TID 0000.0001) |--J--|123456789|123456789|123456789|123456789|123456789|123456789|123456789|123456789|123456789|123456789|123456789|123456789|123456789|123456789|123456789|123456789|123456789|123456789|123456789|12
(PID.TID 0000.0001)     32 ------------------------------------------------------------------------------------------------------------------------------------------------------------------------------------------------
(PID.TID 0000.0001)     31 ------------------------------------------------------------------------------------------------------------------------------------------------------------------------------------------------
(PID.TID 0000.0001)     30 ------------------------------------------------------------------------------------------------------------------------------------------------------------------------------------------------
(PID.TID 0000.0001)     29 ------------------------------------------------------------------------------------------------------------------------------------------------------------------------------------------------
(PID.TID 0000.0001)     28 ------------------------------------------------------------------------------------------------------------------------------------------------------------------------------------------------
(PID.TID 0000.0001)     27 ------------------------------------------------------------------------------------------------------------------------------------------------------------------------------------------------
(PID.TID 0000.0001)     26 ------------------------------------------------------------------------------------------------------------------------------------------------------------------------------------------------
(PID.TID 0000.0001)     25 ------------------------------------------------------------------------------------------------------------------------------------------------------------------------------------------------
(PID.TID 0000.0001)     24 ------------------------------------------------------------------------------------------------------------------------------------------------------------------------------------------------
(PID.TID 0000.0001)     23 ------------------------------------------------------------------------------------------------------------------------------------------------------------------------------------------------
(PID.TID 0000.0001)     22 ------------------------------------------------------------------------------------------------------------------------------------------------------------------------------------------------
(PID.TID 0000.0001)     21 ---------------------------------------------acddca---------------------------------------------------------------------------------------------------------------------------------------------
(PID.TID 0000.0001)     20 --------------------------------------------behjjheb--------------------------------------------------------------------------------------------------------------------------------------------
(PID.TID 0000.0001)     19 -------------------------------------------aejnqqnjea-------------------------------------------------------------------------------------------------------------------------------------------
(PID.TID 0000.0001)     18 -------------------------------------------chntwwtnhc-------------------------------------------------------------------------------------------------------------------------------------------
(PID.TID 0000.0001)     17 -------------------------------------------djqw++wqjd-------------------------------------------------------------------------------------------------------------------------------------------
(PID.TID 0000.0001)     16 -------------------------------------------djqw++wqjd-------------------------------------------------------------------------------------------------------------------------------------------
(PID.TID 0000.0001)     15 -------------------------------------------chntwwtnhc-------------------------------------------------------------------------------------------------------------------------------------------
(PID.TID 0000.0001)     14 -------------------------------------------aejnqqnjea-------------------------------------------------------------------------------------------------------------------------------------------
(PID.TID 0000.0001)     13 --------------------------------------------behjjheb--------------------------------------------------------------------------------------------------------------------------------------------
(PID.TID 0000.0001)     12 ---------------------------------------------acddca---------------------------------------------------------------------------------------------------------------------------------------------
(PID.TID 0000.0001)     11 ------------------------------------------------------------------------------------------------------------------------------------------------------------------------------------------------
(PID.TID 0000.0001)     10 ------------------------------------------------------------------------------------------------------------------------------------------------------------------------------------------------
(PID.TID 0000.0001)      9 ------------------------------------------------------------------------------------------------------------------------------------------------------------------------------------------------
(PID.TID 0000.0001)      8 ------------------------------------------------------------------------------------------------------------------------------------------------------------------------------------------------
(PID.TID 0000.0001)      7 ------------------------------------------------------------------------------------------------------------------------------------------------------------------------------------------------
(PID.TID 0000.0001)      6 ------------------------------------------------------------------------------------------------------------------------------------------------------------------------------------------------
(PID.TID 0000.0001)      5 ------------------------------------------------------------------------------------------------------------------------------------------------------------------------------------------------
(PID.TID 0000.0001)      4 ------------------------------------------------------------------------------------------------------------------------------------------------------------------------------------------------
(PID.TID 0000.0001)      3 ------------------------------------------------------------------------------------------------------------------------------------------------------------------------------------------------
(PID.TID 0000.0001)      2 ------------------------------------------------------------------------------------------------------------------------------------------------------------------------------------------------
(PID.TID 0000.0001)      1 ------------------------------------------------------------------------------------------------------------------------------------------------------------------------------------------------
(PID.TID 0000.0001) // =======================================================
(PID.TID 0000.0001) // END OF FIELD                                          =
(PID.TID 0000.0001) // =======================================================
(PID.TID 0000.0001) 
(PID.TID 0000.0001)  MDSREADFIELD: opening global file: S.init
(PID.TID 0000.0001) // =======================================================
(PID.TID 0000.0001) // Field Initial Salinity at iteration          1
(PID.TID 0000.0001) // CMIN =          1.000000000000000E+00
(PID.TID 0000.0001) // CMAX =          1.982522377677747E+00
(PID.TID 0000.0001) // CINT =          3.638971769176839E-02
(PID.TID 0000.0001) // SYMBOLS (CMIN->CMAX): -abcdefghijklmnopqrstuvwxyz+
(PID.TID 0000.0001) //                  0.0: .
(PID.TID 0000.0001) // RANGE I (Lo:Hi:Step):(   1: 192:   1)
(PID.TID 0000.0001) // RANGE J (Lo:Hi:Step):(  32:   1:  -1)
(PID.TID 0000.0001) // RANGE K (Lo:Hi:Step):(   1:   1:   1)
(PID.TID 0000.0001) // =======================================================
(PID.TID 0000.0001) K =   1
(PID.TID 0000.0001)                I=10      I=20      I=30      I=40      I=50      I=60      I=70      I=80      I=90      I=100     I=110     I=120     I=130     I=140     I=150     I=160     I=170     I=180     I=190
(PID.TID 0000.0001) |--J--|123456789|123456789|123456789|123456789|123456789|123456789|123456789|123456789|123456789|123456789|123456789|123456789|123456789|123456789|123456789|123456789|123456789|123456789|123456789|12
(PID.TID 0000.0001)     32 ------------------------------------------------------------------------------------------------------------------------------------------------------------------------------------------------
(PID.TID 0000.0001)     31 ------------------------------------------------------------------------------------------------------------------------------------------------------------------------------------------------
(PID.TID 0000.0001)     30 ------------------------------------------------------------------------------------------------------------------------------------------------------------------------------------------------
(PID.TID 0000.0001)     29 ------------------------------------------------------------------------------------------------------------------------------------------------------------------------------------------------
(PID.TID 0000.0001)     28 ------------------------------------------------------------------------------------------------------------------------------------------------------------------------------------------------
(PID.TID 0000.0001)     27 ------------------------------------------------------------------------------------------------------------------------------------------------------------------------------------------------
(PID.TID 0000.0001)     26 ------------------------------------------------------------------------------------------------------------------------------------------------------------------------------------------------
(PID.TID 0000.0001)     25 ------------------------------------------------------------------------------------------------------------------------------------------------------------------------------------------------
(PID.TID 0000.0001)     24 ------------------------------------------------------------------------------------------------------------------------------------------------------------------------------------------------
(PID.TID 0000.0001)     23 ------------------------------------------------------------------------------------------------------------------------------------------------------------------------------------------------
(PID.TID 0000.0001)     22 --------------------------------------------------------------------------------------------------aaaa------------------------------------------------------------------------------------------
(PID.TID 0000.0001)     21 ------------------------------------------------------------------------------------------------aceeedb-----------------------------------------------------------------------------------------
(PID.TID 0000.0001)     20 -----------------------------------------------------------------------------------------------adhjkkheb----------------------------------------------------------------------------------------
(PID.TID 0000.0001)     19 ----------------------------------------------------------------------------------------------adhmprqniea---------------------------------------------------------------------------------------
(PID.TID 0000.0001)     18 ----------------------------------------------------------------------------------------------bfkqvxwsmgb---------------------------------------------------------------------------------------
(PID.TID 0000.0001)     17 ----------------------------------------------------------------------------------------------bgmty+zvoic---------------------------------------------------------------------------------------
(PID.TID 0000.0001)     16 ----------------------------------------------------------------------------------------------bgmty+zvoic---------------------------------------------------------------------------------------
(PID.TID 0000.0001)     15 ----------------------------------------------------------------------------------------------bfkqvxwsmgb---------------------------------------------------------------------------------------
(PID.TID 0000.0001)     14 ----------------------------------------------------------------------------------------------adhmprqniea---------------------------------------------------------------------------------------
(PID.TID 0000.0001)     13 -----------------------------------------------------------------------------------------------adhjkkheb----------------------------------------------------------------------------------------
(PID.TID 0000.0001)     12 ------------------------------------------------------------------------------------------------aceeedb-----------------------------------------------------------------------------------------
(PID.TID 0000.0001)     11 --------------------------------------------------------------------------------------------------aaaa------------------------------------------------------------------------------------------
(PID.TID 0000.0001)     10 ------------------------------------------------------------------------------------------------------------------------------------------------------------------------------------------------
(PID.TID 0000.0001)      9 ------------------------------------------------------------------------------------------------------------------------------------------------------------------------------------------------
(PID.TID 0000.0001)      8 ------------------------------------------------------------------------------------------------------------------------------------------------------------------------------------------------
(PID.TID 0000.0001)      7 ------------------------------------------------------------------------------------------------------------------------------------------------------------------------------------------------
(PID.TID 0000.0001)      6 ------------------------------------------------------------------------------------------------------------------------------------------------------------------------------------------------
(PID.TID 0000.0001)      5 ------------------------------------------------------------------------------------------------------------------------------------------------------------------------------------------------
(PID.TID 0000.0001)      4 ------------------------------------------------------------------------------------------------------------------------------------------------------------------------------------------------
(PID.TID 0000.0001)      3 ------------------------------------------------------------------------------------------------------------------------------------------------------------------------------------------------
(PID.TID 0000.0001)      2 ------------------------------------------------------------------------------------------------------------------------------------------------------------------------------------------------
(PID.TID 0000.0001)      1 ------------------------------------------------------------------------------------------------------------------------------------------------------------------------------------------------
(PID.TID 0000.0001) // =======================================================
(PID.TID 0000.0001) // END OF FIELD                                          =
(PID.TID 0000.0001) // =======================================================
(PID.TID 0000.0001) 
(PID.TID 0000.0001) // =======================================================
(PID.TID 0000.0001) // Model current state
(PID.TID 0000.0001) // =======================================================
(PID.TID 0000.0001) 
(PID.TID 0000.0001) // =======================================================
(PID.TID 0000.0001) // Begin MONITOR dynamic field statistics
(PID.TID 0000.0001) // =======================================================
(PID.TID 0000.0001) %MON time_tsnumber                =                     0
(PID.TID 0000.0001) %MON time_secondsf                =   0.0000000000000E+00
(PID.TID 0000.0001) %MON time_secondsi                =                     0
(PID.TID 0000.0001) %MON dynstat_eta_max              =   0.0000000000000E+00
(PID.TID 0000.0001) %MON dynstat_eta_min              =   0.0000000000000E+00
(PID.TID 0000.0001) %MON dynstat_eta_mean             =   0.0000000000000E+00
(PID.TID 0000.0001) %MON dynstat_eta_sd               =   0.0000000000000E+00
(PID.TID 0000.0001) %MON dynstat_eta_del2             =   0.0000000000000E+00
(PID.TID 0000.0001) %MON dynstat_uvel_max             =   3.8588909729170E+01
(PID.TID 0000.0001) %MON dynstat_uvel_min             =  -2.6640751857540E+01
(PID.TID 0000.0001) %MON dynstat_uvel_mean            =   1.1767582051515E+01
(PID.TID 0000.0001) %MON dynstat_uvel_sd              =   1.8925013763619E+01
(PID.TID 0000.0001) %MON dynstat_uvel_del2            =   3.3977035061841E-02
(PID.TID 0000.0001) %MON dynstat_vvel_max             =   3.8588909729170E+01
(PID.TID 0000.0001) %MON dynstat_vvel_min             =  -2.6640751857540E+01
(PID.TID 0000.0001) %MON dynstat_vvel_mean            =   1.1767582051515E+01
(PID.TID 0000.0001) %MON dynstat_vvel_sd              =   1.8925013763619E+01
(PID.TID 0000.0001) %MON dynstat_vvel_del2            =   3.3977035061841E-02
(PID.TID 0000.0001) %MON dynstat_wvel_max             =   4.8259469367879E-15
(PID.TID 0000.0001) %MON dynstat_wvel_min             =  -4.8259469367879E-15
(PID.TID 0000.0001) %MON dynstat_wvel_mean            =  -2.6408038640800E-34
(PID.TID 0000.0001) %MON dynstat_wvel_sd              =   1.3451301434752E-15
(PID.TID 0000.0001) %MON dynstat_wvel_del2            =   1.3733452540939E-15
(PID.TID 0000.0001) %MON dynstat_theta_max            =   1.9650032982072E+00
(PID.TID 0000.0001) %MON dynstat_theta_min            =   1.0000000000000E+00
(PID.TID 0000.0001) %MON dynstat_theta_mean           =   1.0066874826115E+00
(PID.TID 0000.0001) %MON dynstat_theta_sd             =   6.1907921478585E-02
(PID.TID 0000.0001) %MON dynstat_theta_del2           =   4.4693376318999E-04
(PID.TID 0000.0001) %MON dynstat_salt_max             =   1.9825223776777E+00
(PID.TID 0000.0001) %MON dynstat_salt_min             =   1.0000000000000E+00
(PID.TID 0000.0001) %MON dynstat_salt_mean            =   1.0066890532193E+00
(PID.TID 0000.0001) %MON dynstat_salt_sd              =   6.1908487932064E-02
(PID.TID 0000.0001) %MON dynstat_salt_del2            =   4.5030586672213E-04
(PID.TID 0000.0001) %MON advcfl_uvel_max              =   1.0218201555446E+00
(PID.TID 0000.0001) %MON advcfl_vvel_max              =   1.0218201555446E+00
(PID.TID 0000.0001) %MON advcfl_wvel_max              =   3.4746817944873E-16
(PID.TID 0000.0001) %MON advcfl_W_hf_max              =   0.0000000000000E+00
(PID.TID 0000.0001) %MON ke_max                       =   7.4455150023606E+02
(PID.TID 0000.0001) %MON ke_mean                      =   4.9661803126781E+02
(PID.TID 0000.0001) %MON ke_volint                    =   2.5323489810542E+22
(PID.TID 0000.0001) %MON ke_volmean                   =   4.9663214534537E+02
(PID.TID 0000.0001) // =======================================================
(PID.TID 0000.0001) // End MONITOR dynamic field statistics
(PID.TID 0000.0001) // =======================================================
(PID.TID 0000.0001) // =======================================================
(PID.TID 0000.0001) // Begin MONITOR dynamic field statistics
(PID.TID 0000.0001) // =======================================================
(PID.TID 0000.0001) %MON time_tsnumber                =                     6
(PID.TID 0000.0001) %MON time_secondsf                =   2.1600000000000E+04
(PID.TID 0000.0001) %MON time_secondsi                =                 21600
(PID.TID 0000.0001) %MON dynstat_eta_max              =   0.0000000000000E+00
(PID.TID 0000.0001) %MON dynstat_eta_min              =   0.0000000000000E+00
(PID.TID 0000.0001) %MON dynstat_eta_mean             =   0.0000000000000E+00
(PID.TID 0000.0001) %MON dynstat_eta_sd               =   0.0000000000000E+00
(PID.TID 0000.0001) %MON dynstat_eta_del2             =   0.0000000000000E+00
(PID.TID 0000.0001) %MON dynstat_uvel_max             =   3.8588909729170E+01
(PID.TID 0000.0001) %MON dynstat_uvel_min             =  -2.6640751857540E+01
(PID.TID 0000.0001) %MON dynstat_uvel_mean            =   1.1767582051515E+01
(PID.TID 0000.0001) %MON dynstat_uvel_sd              =   1.8925013763619E+01
(PID.TID 0000.0001) %MON dynstat_uvel_del2            =   3.3977035061841E-02
(PID.TID 0000.0001) %MON dynstat_vvel_max             =   3.8588909729170E+01
(PID.TID 0000.0001) %MON dynstat_vvel_min             =  -2.6640751857540E+01
(PID.TID 0000.0001) %MON dynstat_vvel_mean            =   1.1767582051515E+01
(PID.TID 0000.0001) %MON dynstat_vvel_sd              =   1.8925013763619E+01
(PID.TID 0000.0001) %MON dynstat_vvel_del2            =   3.3977035061841E-02
(PID.TID 0000.0001) %MON dynstat_wvel_max             =   4.8259469367879E-15
(PID.TID 0000.0001) %MON dynstat_wvel_min             =  -4.8259469367879E-15
(PID.TID 0000.0001) %MON dynstat_wvel_mean            =  -2.6408038640800E-34
(PID.TID 0000.0001) %MON dynstat_wvel_sd              =   1.3451301434752E-15
(PID.TID 0000.0001) %MON dynstat_wvel_del2            =   1.3733452540939E-15
(PID.TID 0000.0001) %MON dynstat_theta_max            =   1.9599243775066E+00
(PID.TID 0000.0001) %MON dynstat_theta_min            =   9.9993889005625E-01
(PID.TID 0000.0001) %MON dynstat_theta_mean           =   1.0066874826115E+00
(PID.TID 0000.0001) %MON dynstat_theta_sd             =   6.1610332412894E-02
(PID.TID 0000.0001) %MON dynstat_theta_del2           =   4.4712452912186E-04
(PID.TID 0000.0001) %MON dynstat_salt_max             =   1.9763978887494E+00
(PID.TID 0000.0001) %MON dynstat_salt_min             =   9.9989254585823E-01
(PID.TID 0000.0001) %MON dynstat_salt_mean            =   1.0066780408584E+00
(PID.TID 0000.0001) %MON dynstat_salt_sd              =   6.1658090995437E-02
(PID.TID 0000.0001) %MON dynstat_salt_del2            =   4.4948624787978E-04
(PID.TID 0000.0001) %MON advcfl_uvel_max              =   1.0218201555446E+00
(PID.TID 0000.0001) %MON advcfl_vvel_max              =   1.0218201555446E+00
(PID.TID 0000.0001) %MON advcfl_wvel_max              =   3.4746817944873E-16
(PID.TID 0000.0001) %MON advcfl_W_hf_max              =   0.0000000000000E+00
(PID.TID 0000.0001) %MON ke_max                       =   7.4455150023606E+02
(PID.TID 0000.0001) %MON ke_mean                      =   4.9661803126781E+02
(PID.TID 0000.0001) %MON ke_volint                    =   2.5323489810542E+22
(PID.TID 0000.0001) %MON ke_volmean                   =   4.9663214534537E+02
(PID.TID 0000.0001) // =======================================================
(PID.TID 0000.0001) // End MONITOR dynamic field statistics
(PID.TID 0000.0001) // =======================================================
(PID.TID 0000.0001) // =======================================================
(PID.TID 0000.0001) // Begin MONITOR dynamic field statistics
(PID.TID 0000.0001) // =======================================================
(PID.TID 0000.0001) %MON time_tsnumber                =                    12
(PID.TID 0000.0001) %MON time_secondsf                =   4.3200000000000E+04
(PID.TID 0000.0001) %MON time_secondsi                =                 43200
(PID.TID 0000.0001) %MON dynstat_eta_max              =   0.0000000000000E+00
(PID.TID 0000.0001) %MON dynstat_eta_min              =   0.0000000000000E+00
(PID.TID 0000.0001) %MON dynstat_eta_mean             =   0.0000000000000E+00
(PID.TID 0000.0001) %MON dynstat_eta_sd               =   0.0000000000000E+00
(PID.TID 0000.0001) %MON dynstat_eta_del2             =   0.0000000000000E+00
(PID.TID 0000.0001) %MON dynstat_uvel_max             =   3.8588909729170E+01
(PID.TID 0000.0001) %MON dynstat_uvel_min             =  -2.6640751857540E+01
(PID.TID 0000.0001) %MON dynstat_uvel_mean            =   1.1767582051515E+01
(PID.TID 0000.0001) %MON dynstat_uvel_sd              =   1.8925013763619E+01
(PID.TID 0000.0001) %MON dynstat_uvel_del2            =   3.3977035061841E-02
(PID.TID 0000.0001) %MON dynstat_vvel_max             =   3.8588909729170E+01
(PID.TID 0000.0001) %MON dynstat_vvel_min             =  -2.6640751857540E+01
(PID.TID 0000.0001) %MON dynstat_vvel_mean            =   1.1767582051515E+01
(PID.TID 0000.0001) %MON dynstat_vvel_sd              =   1.8925013763619E+01
(PID.TID 0000.0001) %MON dynstat_vvel_del2            =   3.3977035061841E-02
(PID.TID 0000.0001) %MON dynstat_wvel_max             =   4.8259469367879E-15
(PID.TID 0000.0001) %MON dynstat_wvel_min             =  -4.8259469367879E-15
(PID.TID 0000.0001) %MON dynstat_wvel_mean            =  -2.6408038640800E-34
(PID.TID 0000.0001) %MON dynstat_wvel_sd              =   1.3451301434752E-15
(PID.TID 0000.0001) %MON dynstat_wvel_del2            =   1.3733452540939E-15
(PID.TID 0000.0001) %MON dynstat_theta_max            =   1.9499265282809E+00
(PID.TID 0000.0001) %MON dynstat_theta_min            =   9.9996636368559E-01
(PID.TID 0000.0001) %MON dynstat_theta_mean           =   1.0066874826115E+00
(PID.TID 0000.0001) %MON dynstat_theta_sd             =   6.1337729431522E-02
(PID.TID 0000.0001) %MON dynstat_theta_del2           =   4.4364211162116E-04
(PID.TID 0000.0001) %MON dynstat_salt_max             =   1.9666737182674E+00
(PID.TID 0000.0001) %MON dynstat_salt_min             =   9.9992935846770E-01
(PID.TID 0000.0001) %MON dynstat_salt_mean            =   1.0066649699538E+00
(PID.TID 0000.0001) %MON dynstat_salt_sd              =   6.1407806031544E-02
(PID.TID 0000.0001) %MON dynstat_salt_del2            =   4.4736287604772E-04
(PID.TID 0000.0001) %MON advcfl_uvel_max              =   1.0218201555446E+00
(PID.TID 0000.0001) %MON advcfl_vvel_max              =   1.0218201555446E+00
(PID.TID 0000.0001) %MON advcfl_wvel_max              =   3.4746817944873E-16
(PID.TID 0000.0001) %MON advcfl_W_hf_max              =   0.0000000000000E+00
(PID.TID 0000.0001) %MON ke_max                       =   7.4455150023606E+02
(PID.TID 0000.0001) %MON ke_mean                      =   4.9661803126781E+02
(PID.TID 0000.0001) %MON ke_volint                    =   2.5323489810542E+22
(PID.TID 0000.0001) %MON ke_volmean                   =   4.9663214534537E+02
(PID.TID 0000.0001) // =======================================================
(PID.TID 0000.0001) // End MONITOR dynamic field statistics
(PID.TID 0000.0001) // =======================================================
(PID.TID 0000.0001) // =======================================================
(PID.TID 0000.0001) // Begin MONITOR dynamic field statistics
(PID.TID 0000.0001) // =======================================================
(PID.TID 0000.0001) %MON time_tsnumber                =                    18
(PID.TID 0000.0001) %MON time_secondsf                =   6.4800000000000E+04
(PID.TID 0000.0001) %MON time_secondsi                =                 64800
(PID.TID 0000.0001) %MON dynstat_eta_max              =   0.0000000000000E+00
(PID.TID 0000.0001) %MON dynstat_eta_min              =   0.0000000000000E+00
(PID.TID 0000.0001) %MON dynstat_eta_mean             =   0.0000000000000E+00
(PID.TID 0000.0001) %MON dynstat_eta_sd               =   0.0000000000000E+00
(PID.TID 0000.0001) %MON dynstat_eta_del2             =   0.0000000000000E+00
(PID.TID 0000.0001) %MON dynstat_uvel_max             =   3.8588909729170E+01
(PID.TID 0000.0001) %MON dynstat_uvel_min             =  -2.6640751857540E+01
(PID.TID 0000.0001) %MON dynstat_uvel_mean            =   1.1767582051515E+01
(PID.TID 0000.0001) %MON dynstat_uvel_sd              =   1.8925013763619E+01
(PID.TID 0000.0001) %MON dynstat_uvel_del2            =   3.3977035061841E-02
(PID.TID 0000.0001) %MON dynstat_vvel_max             =   3.8588909729170E+01
(PID.TID 0000.0001) %MON dynstat_vvel_min             =  -2.6640751857540E+01
(PID.TID 0000.0001) %MON dynstat_vvel_mean            =   1.1767582051515E+01
(PID.TID 0000.0001) %MON dynstat_vvel_sd              =   1.8925013763619E+01
(PID.TID 0000.0001) %MON dynstat_vvel_del2            =   3.3977035061841E-02
(PID.TID 0000.0001) %MON dynstat_wvel_max             =   4.8259469367879E-15
(PID.TID 0000.0001) %MON dynstat_wvel_min             =  -4.8259469367879E-15
(PID.TID 0000.0001) %MON dynstat_wvel_mean            =  -2.6408038640800E-34
(PID.TID 0000.0001) %MON dynstat_wvel_sd              =   1.3451301434752E-15
(PID.TID 0000.0001) %MON dynstat_wvel_del2            =   1.3733452540939E-15
(PID.TID 0000.0001) %MON dynstat_theta_max            =   1.9412309670075E+00
(PID.TID 0000.0001) %MON dynstat_theta_min            =   9.9997573966866E-01
(PID.TID 0000.0001) %MON dynstat_theta_mean           =   1.0066874826115E+00
(PID.TID 0000.0001) %MON dynstat_theta_sd             =   6.1079998304679E-02
(PID.TID 0000.0001) %MON dynstat_theta_del2           =   4.4193919481780E-04
(PID.TID 0000.0001) %MON dynstat_salt_max             =   1.9506531065080E+00
(PID.TID 0000.0001) %MON dynstat_salt_min             =   9.9992853953878E-01
(PID.TID 0000.0001) %MON dynstat_salt_mean            =   1.0066480498725E+00
(PID.TID 0000.0001) %MON dynstat_salt_sd              =   6.1150333860739E-02
(PID.TID 0000.0001) %MON dynstat_salt_del2            =   4.4926140941800E-04
(PID.TID 0000.0001) %MON advcfl_uvel_max              =   1.0218201555446E+00
(PID.TID 0000.0001) %MON advcfl_vvel_max              =   1.0218201555446E+00
(PID.TID 0000.0001) %MON advcfl_wvel_max              =   3.4746817944873E-16
(PID.TID 0000.0001) %MON advcfl_W_hf_max              =   0.0000000000000E+00
(PID.TID 0000.0001) %MON ke_max                       =   7.4455150023606E+02
(PID.TID 0000.0001) %MON ke_mean                      =   4.9661803126781E+02
(PID.TID 0000.0001) %MON ke_volint                    =   2.5323489810542E+22
(PID.TID 0000.0001) %MON ke_volmean                   =   4.9663214534537E+02
(PID.TID 0000.0001) // =======================================================
(PID.TID 0000.0001) // End MONITOR dynamic field statistics
(PID.TID 0000.0001) // =======================================================
(PID.TID 0000.0001) // =======================================================
(PID.TID 0000.0001) // Begin MONITOR dynamic field statistics
(PID.TID 0000.0001) // =======================================================
(PID.TID 0000.0001) %MON time_tsnumber                =                    24
(PID.TID 0000.0001) %MON time_secondsf                =   8.6400000000000E+04
(PID.TID 0000.0001) %MON time_secondsi                =                 86400
(PID.TID 0000.0001) %MON dynstat_eta_max              =   0.0000000000000E+00
(PID.TID 0000.0001) %MON dynstat_eta_min              =   0.0000000000000E+00
(PID.TID 0000.0001) %MON dynstat_eta_mean             =   0.0000000000000E+00
(PID.TID 0000.0001) %MON dynstat_eta_sd               =   0.0000000000000E+00
(PID.TID 0000.0001) %MON dynstat_eta_del2             =   0.0000000000000E+00
(PID.TID 0000.0001) %MON dynstat_uvel_max             =   3.8588909729170E+01
(PID.TID 0000.0001) %MON dynstat_uvel_min             =  -2.6640751857540E+01
(PID.TID 0000.0001) %MON dynstat_uvel_mean            =   1.1767582051515E+01
(PID.TID 0000.0001) %MON dynstat_uvel_sd              =   1.8925013763619E+01
(PID.TID 0000.0001) %MON dynstat_uvel_del2            =   3.3977035061841E-02
(PID.TID 0000.0001) %MON dynstat_vvel_max             =   3.8588909729170E+01
(PID.TID 0000.0001) %MON dynstat_vvel_min             =  -2.6640751857540E+01
(PID.TID 0000.0001) %MON dynstat_vvel_mean            =   1.1767582051515E+01
(PID.TID 0000.0001) %MON dynstat_vvel_sd              =   1.8925013763619E+01
(PID.TID 0000.0001) %MON dynstat_vvel_del2            =   3.3977035061841E-02
(PID.TID 0000.0001) %MON dynstat_wvel_max             =   4.8259469367879E-15
(PID.TID 0000.0001) %MON dynstat_wvel_min             =  -4.8259469367879E-15
(PID.TID 0000.0001) %MON dynstat_wvel_mean            =  -2.6408038640800E-34
(PID.TID 0000.0001) %MON dynstat_wvel_sd              =   1.3451301434752E-15
(PID.TID 0000.0001) %MON dynstat_wvel_del2            =   1.3733452540939E-15
(PID.TID 0000.0001) %MON dynstat_theta_max            =   1.9353402694624E+00
(PID.TID 0000.0001) %MON dynstat_theta_min            =   9.9997983660880E-01
(PID.TID 0000.0001) %MON dynstat_theta_mean           =   1.0066874826115E+00
(PID.TID 0000.0001) %MON dynstat_theta_sd             =   6.0848821096368E-02
(PID.TID 0000.0001) %MON dynstat_theta_del2           =   4.3528663796526E-04
(PID.TID 0000.0001) %MON dynstat_salt_max             =   1.9469631367959E+00
(PID.TID 0000.0001) %MON dynstat_salt_min             =   9.9995200125174E-01
(PID.TID 0000.0001) %MON dynstat_salt_mean            =   1.0066282997324E+00
(PID.TID 0000.0001) %MON dynstat_salt_sd              =   6.0871278244447E-02
(PID.TID 0000.0001) %MON dynstat_salt_del2            =   4.5052090494564E-04
(PID.TID 0000.0001) %MON advcfl_uvel_max              =   1.0218201555446E+00
(PID.TID 0000.0001) %MON advcfl_vvel_max              =   1.0218201555446E+00
(PID.TID 0000.0001) %MON advcfl_wvel_max              =   3.4746817944873E-16
(PID.TID 0000.0001) %MON advcfl_W_hf_max              =   0.0000000000000E+00
(PID.TID 0000.0001) %MON ke_max                       =   7.4455150023606E+02
(PID.TID 0000.0001) %MON ke_mean                      =   4.9661803126781E+02
(PID.TID 0000.0001) %MON ke_volint                    =   2.5323489810542E+22
(PID.TID 0000.0001) %MON ke_volmean                   =   4.9663214534537E+02
(PID.TID 0000.0001) // =======================================================
(PID.TID 0000.0001) // End MONITOR dynamic field statistics
(PID.TID 0000.0001) // =======================================================
(PID.TID 0000.0001) // =======================================================
(PID.TID 0000.0001) // Field Current uVel   at iteration         24
(PID.TID 0000.0001) // CMIN =         -2.664075185753955E+01
(PID.TID 0000.0001) // CMAX =          3.858890972916976E+01
(PID.TID 0000.0001) // CINT =          2.415913392100345E+00
(PID.TID 0000.0001) // SYMBOLS (CMIN->CMAX): -abcdefghijklmnopqrstuvwxyz+
(PID.TID 0000.0001) //                  0.0: .
(PID.TID 0000.0001) // RANGE I (Lo:Hi:Step):(   1: 192:   1)
(PID.TID 0000.0001) // RANGE J (Lo:Hi:Step):(  32:   1:  -1)
(PID.TID 0000.0001) // RANGE K (Lo:Hi:Step):(   1:   1:   1)
(PID.TID 0000.0001) // =======================================================
(PID.TID 0000.0001) K =   1
(PID.TID 0000.0001)                I=10      I=20      I=30      I=40      I=50      I=60      I=70      I=80      I=90      I=100     I=110     I=120     I=130     I=140     I=150     I=160     I=170     I=180     I=190
(PID.TID 0000.0001) |--J--|123456789|123456789|123456789|123456789|123456789|123456789|123456789|123456789|123456789|123456789|123456789|123456789|123456789|123456789|123456789|123456789|123456789|123456789|123456789|12
(PID.TID 0000.0001)     32 xwwwwwwwwwwwwwwwwwwwwwwwwwwwwwwwxwwwwwwwwwwwwwwwwwwwwwwwwwwwwwwwea-----------------------------aeijjkkkkkkkkkkkk.kkkkkkkkkkkkllmeijjkkkkkkkkkkkk.kkkkkkkkkkkkllmquvvvvvvvvvvvvvvvvvvvvvvvvvvvvvu
(PID.TID 0000.0001)     31 xxxxwwwwwwwwwwwwwwwwwwwwwwwwwxxxxxxxwwwwwwwwwwwwwwwwwwwwwwwwwxxxecbaaaaaaaaaaaaaaaaaaaaaaaaaaabcegiijjjjkkkkkkkk.kkkkkkkkllllmmoegiijjjjkkkkkkkk.kkkkkkkkllllmmoqstuuuuuuuuuuuuuuuuuuuuuuuuuuuts
(PID.TID 0000.0001)     30 yxxxxxxxxxxxxxxxxxxxxxxxxxxxxxxxyxxxxxxxxxxxxxxxxxxxxxxxxxxxxxxxedcbbbaaaaaaaaaaaaaaaaaaaaabbbcdeghiijjjjjkkkkkk.kkkkkklllllmmnpeghiijjjjjkkkkkk.kkkkkklllllmmnpqrstttuuuuuuuuuuuuuuuuuuuuutttsr
(PID.TID 0000.0001)     29 yyyyxxxxxxxxxxxxxxxxxxxxxxxxxyyyyyyyxxxxxxxxxxxxxxxxxxxxxxxxxyyyeddccbbbbbbbbbbbbbbbbbbbbbbbccddefghiijjjjjkkkkk.kkkkklllllmmnopefghiijjjjjkkkkk.kkkkklllllmmnopqrssstttttttttttttttttttttttsssr
(PID.TID 0000.0001)     28 yyyyyyyyyyyxxxxxxxxxxxyyyyyyyyyyyyyyyyyyyyyxxxxxxxxxxxyyyyyyyyyyfeddccccccbbbbbbbbbbbbbccccccddeffghiiijjjjjkkkk.kkkklllllmmnnopffghiiijjjjjkkkk.kkkklllllmmnnoppqrrssssstttttttttttttttsssssrrq
(PID.TID 0000.0001)     27 yyyyyyyyyyyyyyyyyyyyyyyyyyyyyyyyyyyyyyyyyyyyyyyyyyyyyyyyyyyyyyyyfeeddddcccccccccccccccccccddddeefgghhiijjjjjkkkk.kkkklllllmmnnoofgghhiijjjjjkkkk.kkkklllllmmnnoopqqrrrsssssssssssssssssssssrrrqq
(PID.TID 0000.0001)     26 zzzzyyyyyyyyyyyyyyyyyyyyyyyyyzzzzzzzyyyyyyyyyyyyyyyyyyyyyyyyyzzzffeeedddddddddddddddddddddddeeeffgghhiijjjjjkkkk.kkklllllmmmnnoofgghhiijjjjjkkkk.kkklllllmmmnnooppqqqrrrrrrrrrrrrrrrrrrrrrrrqqqp
(PID.TID 0000.0001)     25 zzzzzzzzzzzzzzzzzzzzzzzzzzzzzzzzzzzzzzzzzzzzzzzzzzzzzzzzzzzzzzzzgfffeeeeeeeedddddddddeeeeeeeefffgghhiiijjjjjkkkk.kkklllllmmmnnnogghhiiijjjjjkkkk.kkklllllmmmnnnoopppqqqqqqrrrrrrrrrrrrrqqqqqqppp
(PID.TID 0000.0001)     24 zzzzzzzzzzzzzzzzzzzzzzzzzzzzzzzzzzzzzzzzzzzzzzzzzzzzzzzzzzzzzzzzgggfffffeeeeeeeeeeeeeeeeefffffggghhhiiijjjjjkkkk.kkkllllllmmmnnnghhhiiijjjjjkkkk.kkkllllllmmmnnnoopppppqqqqqqqqqqqqqqqqqqqpppppo
(PID.TID 0000.0001)     23 zzzzzzzzzzzzzzzzzzzzzzzzzzzzzzzzzzzzzzzzzzzzzzzzzzzzzzzzzzzzzzzzhggggfffffffffffffffffffffffgggghhhiiiijjjjjkkkk.kkkklllllmmmmnnhhhiiiijjjjjkkkk.kkkklllllmmmmnnnoooopppppppppppppppppppppppoooo
(PID.TID 0000.0001)     22 zzzzzzzzzzzzzzzzzzzzzzzzzzzzzzzzzzzzzzzzzzzzzzzzzzzzzzzzzzzzzzzzhhhhggggggggggggggggggggggggghhhhhiiiijjjjjjkkkk.kkkkllllllmmmmnhhiiiijjjjjjkkkk.kkkkllllllmmmmnnnnooooooooooooooooooooooooooonn
(PID.TID 0000.0001)     21 ++++++++++++++++++++++++++++++++++++++++++++++++++++++++++++++++ihhhhhhhhhhggggggggggghhhhhhhhhhiiiiijjjjjjkkkkk.kkkkkllllllmmmmiiiiijjjjjjkkkkk.kkkkkllllllmmmmmnnnnnnnnnooooooooooooonnnnnnnnn
(PID.TID 0000.0001)     20 ++++++++++++++++++++++++++++++++++++++++++++++++++++++++++++++++iiiiiihhhhhhhhhhhhhhhhhhhhhiiiiiiiijjjjjjjkkkkkk.kkkkkklllllllmmiiijjjjjjjkkkkkk.kkkkkklllllllmmmmmmmmnnnnnnnnnnnnnnnnnnnnnmmmmm
(PID.TID 0000.0001)     19 ++++++++++++++++++++++++++++++++++++++++++++++++++++++++++++++++jjiiiiiiiiiiiiiiiiiiiiiiiiiiiiijjjjjjjjjkkkkkkkk.kkkkkkklllllllljjjjjjjjkkkkkkkk.kkkkkkkllllllllllmmmmmmmmmmmmmmmmmmmmmmmmmmmmml
(PID.TID 0000.0001)     18 ++++++++++++++++++++++++++++++++++++++++++++++++++++++++++++++++jjjjjjjjjjjjjjjjjjjjjjjjjjjjjjjjjjjjjkkkkkkkkkkk.kkkkkkkkkkklllljjjjjkkkkkkkkkkk.kkkkkkkkkkkllllllllllllllllllllllllllllllllllll
(PID.TID 0000.0001)     17 ++++++++++++++++++++++++++++++++++++++++++++++++++++++++++++++++kkkkkkkkkkkkkkkkkkkkkkkkkkkkkkkkkkkkkkkkkkkkkkkk.kkkkkkkkkkkkkkkkkkkkkkkkkkkkkkk.kkkkkkkkkkkkkkkkkkkkkkkkkkkkkkkkkkkkkkkkkkkkkkk
(PID.TID 0000.0001)     16 ++++++++++++++++++++++++++++++++++++++++++++++++++++++++++++++++kkkkkkkkkkkkkkkkkkkkkkkkkkkkkkkkkkkkkkkkkkkkkkkk.kkkkkkkkkkkkkkkkkkkkkkkkkkkkkkk.kkkkkkkkkkkkkkkkkkkkkkkkkkkkkkkkkkkkkkkkkkkkkkk
(PID.TID 0000.0001)     15 ++++++++++++++++++++++++++++++++++++++++++++++++++++++++++++++++lllllllllllllllllllllllllllllllllllllkkkkkkkkkkk.kkkkkkkkkkkjjjjlllllkkkkkkkkkkk.kkkkkkkkkkkjjjjjjjjjjjjjjjjjjjjjjjjjjjjjjjjjjjj
(PID.TID 0000.0001)     14 ++++++++++++++++++++++++++++++++++++++++++++++++++++++++++++++++llmmmmmmmmmmmmmmmmmmmmmmmmmmmmmllllllllllkkkkkkk.kkkkkkkkjjjjjjjlllllllllkkkkkkk.kkkkkkkkjjjjjjjjjiiiiiiiiiiiiiiiiiiiiiiiiiiiiij
(PID.TID 0000.0001)     13 ++++++++++++++++++++++++++++++++++++++++++++++++++++++++++++++++mmmmmmnnnnnnnnnnnnnnnnnnnnnmmmmmmmmlllllllkkkkkk.kkkkkkjjjjjjjiimmmlllllllkkkkkk.kkkkkkjjjjjjjiiiiiiiihhhhhhhhhhhhhhhhhhhhhiiiii
(PID.TID 0000.0001)     12 ++++++++++++++++++++++++++++++++++++++++++++++++++++++++++++++++mnnnnnnnnnooooooooooooonnnnnnnnnmmmmmllllllkkkkk.kkkkkjjjjjjiiiimmmmmllllllkkkkk.kkkkkjjjjjjiiiiihhhhhhhhhhggggggggggghhhhhhhhhh
(PID.TID 0000.0001)     11 zzzzzzzzzzzzzzzzzzzzzzzzzzzzzzzzzzzzzzzzzzzzzzzzzzzzzzzzzzzzzzzznnnooooooooooooooooooooooooooonnnnmmmmllllllkkkk.kkkkjjjjjjiiiihnnmmmmllllllkkkk.kkkkjjjjjjiiiihhhhhggggggggggggggggggggggggghhh
(PID.TID 0000.0001)     10 zzzzzzzzzzzzzzzzzzzzzzzzzzzzzzzzzzzzzzzzzzzzzzzzzzzzzzzzzzzzzzzznoooopppppppppppppppppppppppoooonnnmmmmlllllkkkk.kkkkjjjjjiiiihhnnnmmmmlllllkkkk.kkkkjjjjjiiiihhhggggfffffffffffffffffffffffgggg
(PID.TID 0000.0001)      9 zzzzzzzzzzzzzzzzzzzzzzzzzzzzzzzzzzzzzzzzzzzzzzzzzzzzzzzzzzzzzzzzoopppppqqqqqqqqqqqqqqqqqqqpppppoonnnmmmllllllkkk.kkkkjjjjjiiihhhonnnmmmllllllkkk.kkkkjjjjjiiihhhgggfffffeeeeeeeeeeeeeeeeefffffgg
(PID.TID 0000.0001)      8 zzzzzzzzzzzzzzzzzzzzzzzzzzzzzzzzzzzzzzzzzzzzzzzzzzzzzzzzzzzzzzzzopppqqqqqqrrrrrrrrrrrrrqqqqqqpppoonnnmmmlllllkkk.kkkkjjjjjiiihhgoonnnmmmlllllkkk.kkkkjjjjjiiihhggfffeeeeeeeedddddddddeeeeeeeefff
(PID.TID 0000.0001)      7 zzzzyyyyyyyyyyyyyyyyyyyyyyyyyzzzzzzzyyyyyyyyyyyyyyyyyyyyyyyyyzzzppqqqrrrrrrrrrrrrrrrrrrrrrrrqqqppoonnmmmlllllkkk.kkkkjjjjjiihhggpoonnmmmlllllkkk.kkkkjjjjjiihhggffeeedddddddddddddddddddddddeeef
(PID.TID 0000.0001)      6 yyyyyyyyyyyyyyyyyyyyyyyyyyyyyyyyyyyyyyyyyyyyyyyyyyyyyyyyyyyyyyyypqqrrrsssssssssssssssssssssrrrqqpoonnmmlllllkkkk.kkkkjjjjjiihhggpoonnmmlllllkkkk.kkkkjjjjjiihhggfeeddddcccccccccccccccccccddddee
(PID.TID 0000.0001)      5 yyyyyyyyyyyxxxxxxxxxxxyyyyyyyyyyyyyyyyyyyyyxxxxxxxxxxxyyyyyyyyyypqrrssssstttttttttttttttsssssrrqpponnmmlllllkkkk.kkkkjjjjjiiihgfpponnmmlllllkkkk.kkkkjjjjjiiihgffeddccccccbbbbbbbbbbbbbccccccdde
(PID.TID 0000.0001)      4 yyyyxxxxxxxxxxxxxxxxxxxxxxxxxyyyyyyyxxxxxxxxxxxxxxxxxxxxxxxxxyyyqrssstttttttttttttttttttttttsssrqponmmlllllkkkkk.kkkkkjjjjjiihgfqponmmlllllkkkkk.kkkkkjjjjjiihgfeddccbbbbbbbbbbbbbbbbbbbbbbbccdd
(PID.TID 0000.0001)      3 yxxxxxxxxxxxxxxxxxxxxxxxxxxxxxxxyxxxxxxxxxxxxxxxxxxxxxxxxxxxxxxxqrstttuuuuuuuuuuuuuuuuuuuuutttsrqpnmmlllllkkkkkk.kkkkkkjjjjjiihgqpnmmlllllkkkkkk.kkkkkkjjjjjiihgedcbbbaaaaaaaaaaaaaaaaaaaaabbbcd
(PID.TID 0000.0001)      2 xxxxwwwwwwwwwwwwwwwwwwwwwwwwwxxxxxxxwwwwwwwwwwwwwwwwwwwwwwwwwxxxqstuuuuuuuuuuuuuuuuuuuuuuuuuuutsqommllllkkkkkkkk.kkkkkkkkjjjjiigqommllllkkkkkkkk.kkkkkkkkjjjjiigecbaaaaaaaaaaaaaaaaaaaaaaaaaaabc
(PID.TID 0000.0001)      1 xwwwwwwwwwwwwwwwwwwwwwwwwwwwwwwwxwwwwwwwwwwwwwwwwwwwwwwwwwwwwwwwquvvvvvvvvvvvvvvvvvvvvvvvvvvvvvuqmllkkkkkkkkkkkk.kkkkkkkkkkkkjjiqmllkkkkkkkkkkkk.kkkkkkkkkkkkjjiea-----------------------------a
(PID.TID 0000.0001) // =======================================================
(PID.TID 0000.0001) // END OF FIELD                                          =
(PID.TID 0000.0001) // =======================================================
(PID.TID 0000.0001) 
(PID.TID 0000.0001) // =======================================================
(PID.TID 0000.0001) // Field Current vVel   at iteration         24
(PID.TID 0000.0001) // CMIN =         -2.664075185753955E+01
(PID.TID 0000.0001) // CMAX =          3.858890972916976E+01
(PID.TID 0000.0001) // CINT =          2.415913392100345E+00
(PID.TID 0000.0001) // SYMBOLS (CMIN->CMAX): -abcdefghijklmnopqrstuvwxyz+
(PID.TID 0000.0001) //                  0.0: .
(PID.TID 0000.0001) // RANGE I (Lo:Hi:Step):(   1: 192:   1)
(PID.TID 0000.0001) // RANGE J (Lo:Hi:Step):(  32:   1:  -1)
(PID.TID 0000.0001) // RANGE K (Lo:Hi:Step):(   1:   1:   1)
(PID.TID 0000.0001) // =======================================================
(PID.TID 0000.0001) K =   1
(PID.TID 0000.0001)                I=10      I=20      I=30      I=40      I=50      I=60      I=70      I=80      I=90      I=100     I=110     I=120     I=130     I=140     I=150     I=160     I=170     I=180     I=190
(PID.TID 0000.0001) |--J--|123456789|123456789|123456789|123456789|123456789|123456789|123456789|123456789|123456789|123456789|123456789|123456789|123456789|123456789|123456789|123456789|123456789|123456789|123456789|12
(PID.TID 0000.0001)     32 iggffggghhhiijjkkllmmnnnooopppomiggffggghhhiijjkkllmmnnnooopppomacddeeffgghhijjkkllmnnooppqqrrsuwxxyyyzzzzz++++++++++zzzzzyyyxxwwxxyyyzzzzz++++++++++zzzzzyyyxxwusrrqqppoonnmllkkjjihhggffeeddca
(PID.TID 0000.0001)     31 jihgggghhhiiijjkkllmmmnnnoooonmljihgggghhhiiijjkkllmmmnnnoooonml-bcddeefgghhiijkklmmnnoppqqrsstvwxxyyyzzzzz++++++++++zzzzzyyyxxwwxxyyyzzzzz++++++++++zzzzzyyyxxwvtssrqqpponnmmlkkjiihhggfeeddcb-
(PID.TID 0000.0001)     30 jiihhhhhhiiijjjkklllmmmnnnnnnmmljiihhhhhhiiijjjkklllmmmnnnnnnmml-abcddeffghhiijkklmmnooppqrrstuvwxxyyyzzzzz++++++++++zzzzzyyyxxwwxxyyyzzzzz++++++++++zzzzzyyyxxwvutsrrqppoonmmlkkjiihhgffeddcba-
(PID.TID 0000.0001)     29 kjiiihhiiiiijjjkklllmmmmnnnnmmlkkjiiihhiiiiijjjkklllmmmmnnnnmmlk-abccdeefgghiijkklmmnoopqqrsstuvwwxxyyyzzzz++++++++++zzzzyyyxxwwwwxxyyyzzzz++++++++++zzzzyyyxxwwvutssrqqpoonmmlkkjiihggfeedccba-
(PID.TID 0000.0001)     28 kjjiiiiiiiijjjkkkklllmmmmmmmmllkkjjiiiiiiiijjjkkkklllmmmmmmmmllk-abbcddeffghiijkklmmnoppqrrsttuvwwxxyyyzzzz++++++++++zzzzyyyxxwwwwxxyyyzzzz++++++++++zzzzyyyxxwwvuttsrrqpponmmlkkjiihgffeddcbba-
(PID.TID 0000.0001)     27 kjjjiiiiiijjjjkkkkllllmmmmmmlllkkjjjiiiiiijjjjkkkkllllmmmmmmlllk-aabcddeffghhijkklmnnoppqrsstuuvwwxxyyyzzzz++++++++++zzzzyyyxxwwwwxxyyyzzzz++++++++++zzzzyyyxxwwvuutssrqpponnmlkkjihhgffeddcbaa-
(PID.TID 0000.0001)     26 kjjjjjjjjjjjjjkkkkllllllmmlllllkkjjjjjjjjjjjjjkkkkllllllmmlllllk-aabccdeffghhijkklmnnopqqrsstuuvwwxxyyyzzzz++++++++++zzzzyyyxxwwwwxxyyyzzzz++++++++++zzzzyyyxxwwvuutssrqqponnmlkkjihhgffedccbaa-
(PID.TID 0000.0001)     25 kkjjjjjjjjjjjkkkkkllllllllllllkkkkjjjjjjjjjjjkkkkkllllllllllllkk-aabccdeefghhijkklmnnopqqrsstuuvwwxxyyyzzzz++++++++++zzzzyyyxxwwwwxxyyyzzzz++++++++++zzzzyyyxxwwvuutssrqqponnmlkkjihhgfeedccbaa-
(PID.TID 0000.0001)     24 kkjjjjjjjjjjjkkkkkklllllllllllkkkkjjjjjjjjjjjkkkkkklllllllllllkk-aabccdeefghhijkklmnnopqqrsttuuvwwxxyyyzzzz++++++++++zzzzyyyxxwwwwxxyyyzzzz++++++++++zzzzyyyxxwwvuuttsrqqponnmlkkjihhgfeedccbaa-
(PID.TID 0000.0001)     23 kkkjjjjjjjjjkkkkkkkklllllllllkkkkkkjjjjjjjjjkkkkkkkklllllllllkkk-aabbcdeefghhijkklmnoopqrrsttuuvwwxxyyyzzzz++++++++++zzzzyyyxxwwwwxxyyyzzzz++++++++++zzzzyyyxxwwvuuttsrrqpoonmlkkjihhgfeedcbbaa-
(PID.TID 0000.0001)     22 kkkkjjjjjjjkkkkkkkkkklllllllkkkkkkkkjjjjjjjkkkkkkkkkklllllllkkkk-aabbcdeefgghijkklmnoopqrrsttuuvwwxxxyyzzzz++++++++++zzzzyyxxxwwwwxxxyyzzzz++++++++++zzzzyyxxxwwvuuttsrrqpoonmlkkjihggfeedcbbaa-
(PID.TID 0000.0001)     21 kkkkkkkkkkkkkkkkkkkkkkklllkkkkkkkkkkkkkkkkkkkkkkkkkkkkklllkkkkkk-aabbcddefgghijkklmnoopqrrsttuuvwwxxxyyzzzz++++++++++zzzzyyxxxwwwwxxxyyzzzz++++++++++zzzzyyxxxwwvuuttsrrqpoonmlkkjihggfeddcbbaa-
(PID.TID 0000.0001)     20 kkkkkkkkkkkkkkkkkkkkkkkkkkkkkkkkkkkkkkkkkkkkkkkkkkkkkkkkkkkkkkkk-aabbcddefgghijkklmnoopqrrsttuuvwwxxxyyzzzz++++++++++zzzzyyxxxwwwwxxxyyzzzz++++++++++zzzzyyxxxwwvuuttsrrqpoonmlkkjihggfeddcbbaa-
(PID.TID 0000.0001)     19 kkkkkkkkkkkkkkkkkkkkkkkkkkkkkkkkkkkkkkkkkkkkkkkkkkkkkkkkkkkkkkkk-aabbcddefgghijkklmnoopqrrsttuuvwwxxxyyzzzz++++++++++zzzzyyxxxwwwwxxxyyzzzz++++++++++zzzzyyxxxwwvuuttsrrqpoonmlkkjihggfeddcbbaa-
(PID.TID 0000.0001)     18 kkkkkkkkkkkkkkkkkkkkkkkkkkkkkkkkkkkkkkkkkkkkkkkkkkkkkkkkkkkkkkkk-aabbcddefgghijkklmnoopqrrsttuuvwwxxxyyzzzz++++++++++zzzzyyxxxwwwwxxxyyzzzz++++++++++zzzzyyxxxwwvuuttsrrqpoonmlkkjihggfeddcbbaa-
(PID.TID 0000.0001)     17 ................................................................-aabbcddefgghijkklmnoopqrrsttuuvwwxxxyyzzzz++++++++++zzzzyyxxxwwwwxxxyyzzzz++++++++++zzzzyyxxxwwvuuttsrrqpoonmlkkjihggfeddcbbaa-
(PID.TID 0000.0001)     16 kkkkkkkkkkkkkkkkkkkkkkkkkkkkkkkkkkkkkkkkkkkkkkkkkkkkkkkkkkkkkkkk-aabbcddefgghijkklmnoopqrrsttuuvwwxxxyyzzzz++++++++++zzzzyyxxxwwwwxxxyyzzzz++++++++++zzzzyyxxxwwvuuttsrrqpoonmlkkjihggfeddcbbaa-
(PID.TID 0000.0001)     15 kkkkkkkkkkkkkkkkkkkkkkkkkkkkkkkkkkkkkkkkkkkkkkkkkkkkkkkkkkkkkkkk-aabbcddefgghijkklmnoopqrrsttuuvwwxxxyyzzzz++++++++++zzzzyyxxxwwwwxxxyyzzzz++++++++++zzzzyyxxxwwvuuttsrrqpoonmlkkjihggfeddcbbaa-
(PID.TID 0000.0001)     14 kkkkkkkkkkkkkkkkkkkkkkkkkkkkkkkkkkkkkkkkkkkkkkkkkkkkkkkkkkkkkkkk-aabbcddefgghijkklmnoopqrrsttuuvwwxxxyyzzzz++++++++++zzzzyyxxxwwwwxxxyyzzzz++++++++++zzzzyyxxxwwvuuttsrrqpoonmlkkjihggfeddcbbaa-
(PID.TID 0000.0001)     13 kkkkkklllkkkkkkkkkkkkkkkkkkkkkkkkkkkkklllkkkkkkkkkkkkkkkkkkkkkkk-aabbcddefgghijkklmnoopqrrsttuuvwwxxxyyzzzz++++++++++zzzzyyxxxwwwwxxxyyzzzz++++++++++zzzzyyxxxwwvuuttsrrqpoonmlkkjihggfeddcbbaa-
(PID.TID 0000.0001)     12 kkkklllllllkkkkkkkkkkjjjjjjjkkkkkkkklllllllkkkkkkkkkkjjjjjjjkkkk-aabbcdeefgghijkklmnoopqrrsttuuvwwxxxyyzzzz++++++++++zzzzyyxxxwwwwxxxyyzzzz++++++++++zzzzyyxxxwwvuuttsrrqpoonmlkkjihggfeedcbbaa-
(PID.TID 0000.0001)     11 kkklllllllllkkkkkkkkjjjjjjjjjkkkkkklllllllllkkkkkkkkjjjjjjjjjkkk-aabbcdeefghhijkklmnoopqrrsttuuvwwxxyyyzzzz++++++++++zzzzyyyxxwwwwxxyyyzzzz++++++++++zzzzyyyxxwwvuuttsrrqpoonmlkkjihhgfeedcbbaa-
(PID.TID 0000.0001)     10 kklllllllllllkkkkkkjjjjjjjjjjjkkkklllllllllllkkkkkkjjjjjjjjjjjkk-aabccdeefghhijkklmnnopqqrsttuuvwwxxyyyzzzz++++++++++zzzzyyyxxwwwwxxyyyzzzz++++++++++zzzzyyyxxwwvuuttsrqqponnmlkkjihhgfeedccbaa-
(PID.TID 0000.0001)      9 kkllllllllllllkkkkkjjjjjjjjjjjkkkkllllllllllllkkkkkjjjjjjjjjjjkk-aabccdeefghhijkklmnnopqqrsstuuvwwxxyyyzzzz++++++++++zzzzyyyxxwwwwxxyyyzzzz++++++++++zzzzyyyxxwwvuutssrqqponnmlkkjihhgfeedccbaa-
(PID.TID 0000.0001)      8 klllllmmllllllkkkkjjjjjjjjjjjjjkklllllmmllllllkkkkjjjjjjjjjjjjjk-aabccdeffghhijkklmnnopqqrsstuuvwwxxyyyzzzz++++++++++zzzzyyyxxwwwwxxyyyzzzz++++++++++zzzzyyyxxwwvuutssrqqponnmlkkjihhgffedccbaa-
(PID.TID 0000.0001)      7 klllmmmmmmllllkkkkjjjjiiiiiijjjkklllmmmmmmllllkkkkjjjjiiiiiijjjk-aabcddeffghhijkklmnnoppqrsstuuvwwxxyyyzzzz++++++++++zzzzyyyxxwwwwxxyyyzzzz++++++++++zzzzyyyxxwwvuutssrqpponnmlkkjihhgffeddcbaa-
(PID.TID 0000.0001)      6 kllmmmmmmmmlllkkkkjjjiiiiiiiijjkkllmmmmmmmmlllkkkkjjjiiiiiiiijjk-abbcddeffghiijkklmmnoppqrrsttuvwwxxyyyzzzz++++++++++zzzzyyyxxwwwwxxyyyzzzz++++++++++zzzzyyyxxwwvuttsrrqpponmmlkkjiihgffeddcbba-
(PID.TID 0000.0001)      5 klmmnnnnmmmmlllkkjjjiiiiihhiiijkklmmnnnnmmmmlllkkjjjiiiiihhiiijk-abccdeefgghiijkklmmnoopqqrsstuvwwxxyyyzzzz++++++++++zzzzyyyxxwwwwxxyyyzzzz++++++++++zzzzyyyxxwwvutssrqqpoonmmlkkjiihggfeedccba-
(PID.TID 0000.0001)      4 lmmnnnnnnmmmlllkkjjjiiihhhhhhiijlmmnnnnnnmmmlllkkjjjiiihhhhhhiij-abcddeffghhiijkklmmnooppqrrstuvwxxyyyzzzzz++++++++++zzzzzyyyxxwwxxyyyzzzzz++++++++++zzzzzyyyxxwvutsrrqppoonmmlkkjiihhgffeddcba-
(PID.TID 0000.0001)      3 lmnoooonnnmmmllkkjjiiihhhgggghijlmnoooonnnmmmllkkjjiiihhhgggghij-bcddeefgghhiijkklmmnnoppqqrsstvwxxyyyzzzzz++++++++++zzzzzyyyxxwwxxyyyzzzzz++++++++++zzzzzyyyxxwvtssrqqpponnmmlkkjiihhggfeeddcb-
(PID.TID 0000.0001)      2 mopppooonnnmmllkkjjiihhhgggffggimopppooonnnmmllkkjjiihhhgggffggiacddeeffgghhijjkkllmnnooppqqrrsuwxxyyyzzzzz++++++++++zzzzzyyyxxwwxxyyyzzzzz++++++++++zzzzzyyyxxwusrrqqppoonnmllkkjjihhggffeeddca
(PID.TID 0000.0001)      1 qqqqpppoonnmmllkkjjiihhggfffeeeeqqqqpppoonnmmllkkjjiihhggfffeeeeeeeefffgghhiijjkkllmmnnoopppqqqqxxyyyyzzzzz++++++++++zzzzzyyyyxxxxyyyyzzzzz++++++++++zzzzzyyyyxxqqqqpppoonnmmllkkjjiihhggfffeeee
(PID.TID 0000.0001) // =======================================================
(PID.TID 0000.0001) // END OF FIELD                                          =
(PID.TID 0000.0001) // =======================================================
(PID.TID 0000.0001) 
(PID.TID 0000.0001) // =======================================================
(PID.TID 0000.0001) // Field Current theta  at iteration         24
(PID.TID 0000.0001) // CMIN =          9.999798366088014E-01
(PID.TID 0000.0001) // CMAX =          1.935340269462366E+00
(PID.TID 0000.0001) // CINT =          3.464297899457647E-02
(PID.TID 0000.0001) // SYMBOLS (CMIN->CMAX): -abcdefghijklmnopqrstuvwxyz+
(PID.TID 0000.0001) //                  0.0: .
(PID.TID 0000.0001) // RANGE I (Lo:Hi:Step):(   1: 192:   1)
(PID.TID 0000.0001) // RANGE J (Lo:Hi:Step):(  32:   1:  -1)
(PID.TID 0000.0001) // RANGE K (Lo:Hi:Step):(   1:   1:   1)
(PID.TID 0000.0001) // =======================================================
(PID.TID 0000.0001) K =   1
(PID.TID 0000.0001)                I=10      I=20      I=30      I=40      I=50      I=60      I=70      I=80      I=90      I=100     I=110     I=120     I=130     I=140     I=150     I=160     I=170     I=180     I=190
(PID.TID 0000.0001) |--J--|123456789|123456789|123456789|123456789|123456789|123456789|123456789|123456789|123456789|123456789|123456789|123456789|123456789|123456789|123456789|123456789|123456789|123456789|123456789|12
(PID.TID 0000.0001)     32 ------------------------------------------------------------------------------------------------------------------------------------------------------------------------------------------------
(PID.TID 0000.0001)     31 ------------------------------------------------------------------------------------------------------------------------------------------------------------------------------------------------
(PID.TID 0000.0001)     30 ------------------------------------------------------------------------------------------------------------------------------------------------------------------------------------------------
(PID.TID 0000.0001)     29 ------------------------------------------------------------------------------------------------------------------------------------------------------------------------------------------------
(PID.TID 0000.0001)     28 ------------------------------------------------------------------------------------------------------------------------------------------------------------------------------------------------
(PID.TID 0000.0001)     27 ------------------------------------------------------------------------------------------------------------------------------------------------------------------------------------------------
(PID.TID 0000.0001)     26 ------------------------------------------------------------------------------------------------------------------------------------------------------------------------------------------------
(PID.TID 0000.0001)     25 ------------------------------------------------------------------------------------------------------------------------------------------------------------------------------------------------
(PID.TID 0000.0001)     24 ------------------------------------------------------------------------------------------------------------------------------------------------------------------------------------------------
(PID.TID 0000.0001)     23 ------------------------------------------------------------------------------------------------------------------------------------------------------------------------------------------------
(PID.TID 0000.0001)     22 ---------------------------------------------------------aaaa-----------------------------------------------------------------------------------------------------------------------------------
(PID.TID 0000.0001)     21 -------------------------------------------------------bcdeecba---------------------------------------------------------------------------------------------------------------------------------
(PID.TID 0000.0001)     20 ------------------------------------------------------behjkkheb---------------------------------------------------------------------------------------------------------------------------------
(PID.TID 0000.0001)     19 -----------------------------------------------------adinqrqniea--------------------------------------------------------------------------------------------------------------------------------
(PID.TID 0000.0001)     18 -----------------------------------------------------bgmswxwsmgc--------------------------------------------------------------------------------------------------------------------------------
(PID.TID 0000.0001)     17 -----------------------------------------------------chovz+zvoic--------------------------------------------------------------------------------------------------------------------------------
(PID.TID 0000.0001)     16 -----------------------------------------------------chovz+zvoic--------------------------------------------------------------------------------------------------------------------------------
(PID.TID 0000.0001)     15 -----------------------------------------------------bgmswxwsmgc--------------------------------------------------------------------------------------------------------------------------------
(PID.TID 0000.0001)     14 -----------------------------------------------------adinqrqniea--------------------------------------------------------------------------------------------------------------------------------
(PID.TID 0000.0001)     13 ------------------------------------------------------behjkkheb---------------------------------------------------------------------------------------------------------------------------------
(PID.TID 0000.0001)     12 -------------------------------------------------------bcdeecba---------------------------------------------------------------------------------------------------------------------------------
(PID.TID 0000.0001)     11 ---------------------------------------------------------aaaa-----------------------------------------------------------------------------------------------------------------------------------
(PID.TID 0000.0001)     10 ------------------------------------------------------------------------------------------------------------------------------------------------------------------------------------------------
(PID.TID 0000.0001)      9 ------------------------------------------------------------------------------------------------------------------------------------------------------------------------------------------------
(PID.TID 0000.0001)      8 ------------------------------------------------------------------------------------------------------------------------------------------------------------------------------------------------
(PID.TID 0000.0001)      7 ------------------------------------------------------------------------------------------------------------------------------------------------------------------------------------------------
(PID.TID 0000.0001)      6 ------------------------------------------------------------------------------------------------------------------------------------------------------------------------------------------------
(PID.TID 0000.0001)      5 ------------------------------------------------------------------------------------------------------------------------------------------------------------------------------------------------
(PID.TID 0000.0001)      4 ------------------------------------------------------------------------------------------------------------------------------------------------------------------------------------------------
(PID.TID 0000.0001)      3 ------------------------------------------------------------------------------------------------------------------------------------------------------------------------------------------------
(PID.TID 0000.0001)      2 ------------------------------------------------------------------------------------------------------------------------------------------------------------------------------------------------
(PID.TID 0000.0001)      1 ------------------------------------------------------------------------------------------------------------------------------------------------------------------------------------------------
(PID.TID 0000.0001) // =======================================================
(PID.TID 0000.0001) // END OF FIELD                                          =
(PID.TID 0000.0001) // =======================================================
(PID.TID 0000.0001) 
(PID.TID 0000.0001) // =======================================================
(PID.TID 0000.0001) // Field Current etaN   at iteration         24
(PID.TID 0000.0001) // CMIN =          1.000000000000000E+32
(PID.TID 0000.0001) // CMAX =         -1.000000000000000E+32
(PID.TID 0000.0001) // CINT =          0.000000000000000E+00
(PID.TID 0000.0001) // SYMBOLS (CMIN->CMAX): -abcdefghijklmnopqrstuvwxyz+
(PID.TID 0000.0001) //                  0.0: .
(PID.TID 0000.0001) // RANGE I (Lo:Hi:Step):(  -2: 195:   1)
(PID.TID 0000.0001) // RANGE J (Lo:Hi:Step):(  35:  -2:  -1)
(PID.TID 0000.0001) // RANGE K (Lo:Hi:Step):(   1:   1:   1)
(PID.TID 0000.0001) // =======================================================
(PID.TID 0000.0001) K =   1
(PID.TID 0000.0001)                I=7       I=17      I=27      I=31      I=41      I=51      I=61      I=65      I=75      I=85      I=95      I=99      I=109     I=119     I=129     I=133     I=143     I=153     I=163     I=167     I=177     I=187
(PID.TID 0000.0001) |--J--|**0123456|890123456|890123456|890123450|234567890|234567890|234567890|234567234|678901234|678901234|678901234|678945678|012345678|012345678|012345678|016789012|456789012|456789012|456789012|890123456|890123456|890123456|89012345
(PID.TID 0000.0001)     35 ....................................................................................................................................................................................................................................
(PID.TID 0000.0001)     34 ....................................................................................................................................................................................................................................
(PID.TID 0000.0001)     33 ....................................................................................................................................................................................................................................
(PID.TID 0000.0001)     32 ....................................................................................................................................................................................................................................
(PID.TID 0000.0001)     31 ....................................................................................................................................................................................................................................
(PID.TID 0000.0001)     30 ....................................................................................................................................................................................................................................
(PID.TID 0000.0001)     29 ....................................................................................................................................................................................................................................
(PID.TID 0000.0001)     28 ....................................................................................................................................................................................................................................
(PID.TID 0000.0001)     27 ....................................................................................................................................................................................................................................
(PID.TID 0000.0001)     26 ....................................................................................................................................................................................................................................
(PID.TID 0000.0001)     25 ....................................................................................................................................................................................................................................
(PID.TID 0000.0001)     24 ....................................................................................................................................................................................................................................
(PID.TID 0000.0001)     23 ....................................................................................................................................................................................................................................
(PID.TID 0000.0001)     22 ....................................................................................................................................................................................................................................
(PID.TID 0000.0001)     21 ....................................................................................................................................................................................................................................
(PID.TID 0000.0001)     20 ....................................................................................................................................................................................................................................
(PID.TID 0000.0001)     19 ....................................................................................................................................................................................................................................
(PID.TID 0000.0001)     18 ....................................................................................................................................................................................................................................
(PID.TID 0000.0001)     17 ....................................................................................................................................................................................................................................
(PID.TID 0000.0001)     16 ....................................................................................................................................................................................................................................
(PID.TID 0000.0001)     15 ....................................................................................................................................................................................................................................
(PID.TID 0000.0001)     14 ....................................................................................................................................................................................................................................
(PID.TID 0000.0001)     13 ....................................................................................................................................................................................................................................
(PID.TID 0000.0001)     12 ....................................................................................................................................................................................................................................
(PID.TID 0000.0001)     11 ....................................................................................................................................................................................................................................
(PID.TID 0000.0001)     10 ....................................................................................................................................................................................................................................
(PID.TID 0000.0001)      9 ....................................................................................................................................................................................................................................
(PID.TID 0000.0001)      8 ....................................................................................................................................................................................................................................
(PID.TID 0000.0001)      7 ....................................................................................................................................................................................................................................
(PID.TID 0000.0001)      6 ....................................................................................................................................................................................................................................
(PID.TID 0000.0001)      5 ....................................................................................................................................................................................................................................
(PID.TID 0000.0001)      4 ....................................................................................................................................................................................................................................
(PID.TID 0000.0001)      3 ....................................................................................................................................................................................................................................
(PID.TID 0000.0001)      2 ....................................................................................................................................................................................................................................
(PID.TID 0000.0001)      1 ....................................................................................................................................................................................................................................
(PID.TID 0000.0001)      0 ....................................................................................................................................................................................................................................
(PID.TID 0000.0001)     -1 ....................................................................................................................................................................................................................................
(PID.TID 0000.0001)     -2 ....................................................................................................................................................................................................................................
(PID.TID 0000.0001) // =======================================================
(PID.TID 0000.0001) // END OF FIELD                                          =
(PID.TID 0000.0001) // =======================================================
(PID.TID 0000.0001) 
(PID.TID 0000.0001) // =======================================================
(PID.TID 0000.0001) // Begin MONITOR dynamic field statistics
(PID.TID 0000.0001) // =======================================================
(PID.TID 0000.0001) %MON time_tsnumber                =                    30
(PID.TID 0000.0001) %MON time_secondsf                =   1.0800000000000E+05
(PID.TID 0000.0001) %MON time_secondsi                =                108000
(PID.TID 0000.0001) %MON dynstat_eta_max              =   0.0000000000000E+00
(PID.TID 0000.0001) %MON dynstat_eta_min              =   0.0000000000000E+00
(PID.TID 0000.0001) %MON dynstat_eta_mean             =   0.0000000000000E+00
(PID.TID 0000.0001) %MON dynstat_eta_sd               =   0.0000000000000E+00
(PID.TID 0000.0001) %MON dynstat_eta_del2             =   0.0000000000000E+00
(PID.TID 0000.0001) %MON dynstat_uvel_max             =   3.8588909729170E+01
(PID.TID 0000.0001) %MON dynstat_uvel_min             =  -2.6640751857540E+01
(PID.TID 0000.0001) %MON dynstat_uvel_mean            =   1.1767582051515E+01
(PID.TID 0000.0001) %MON dynstat_uvel_sd              =   1.8925013763619E+01
(PID.TID 0000.0001) %MON dynstat_uvel_del2            =   3.3977035061841E-02
(PID.TID 0000.0001) %MON dynstat_vvel_max             =   3.8588909729170E+01
(PID.TID 0000.0001) %MON dynstat_vvel_min             =  -2.6640751857540E+01
(PID.TID 0000.0001) %MON dynstat_vvel_mean            =   1.1767582051515E+01
(PID.TID 0000.0001) %MON dynstat_vvel_sd              =   1.8925013763619E+01
(PID.TID 0000.0001) %MON dynstat_vvel_del2            =   3.3977035061841E-02
(PID.TID 0000.0001) %MON dynstat_wvel_max             =   4.8259469367879E-15
(PID.TID 0000.0001) %MON dynstat_wvel_min             =  -4.8259469367879E-15
(PID.TID 0000.0001) %MON dynstat_wvel_mean            =  -2.6408038640800E-34
(PID.TID 0000.0001) %MON dynstat_wvel_sd              =   1.3451301434752E-15
(PID.TID 0000.0001) %MON dynstat_wvel_del2            =   1.3733452540939E-15
(PID.TID 0000.0001) %MON dynstat_theta_max            =   1.9317101601250E+00
(PID.TID 0000.0001) %MON dynstat_theta_min            =   9.9998258943937E-01
(PID.TID 0000.0001) %MON dynstat_theta_mean           =   1.0066874826115E+00
(PID.TID 0000.0001) %MON dynstat_theta_sd             =   6.0638674475832E-02
(PID.TID 0000.0001) %MON dynstat_theta_del2           =   4.3507960874835E-04
(PID.TID 0000.0001) %MON dynstat_salt_max             =   1.9409676894942E+00
(PID.TID 0000.0001) %MON dynstat_salt_min             =   9.9996044121109E-01
(PID.TID 0000.0001) %MON dynstat_salt_mean            =   1.0066297120495E+00
(PID.TID 0000.0001) %MON dynstat_salt_sd              =   6.0700916333905E-02
(PID.TID 0000.0001) %MON dynstat_salt_del2            =   4.5138754991025E-04
(PID.TID 0000.0001) %MON advcfl_uvel_max              =   1.0218201555446E+00
(PID.TID 0000.0001) %MON advcfl_vvel_max              =   1.0218201555446E+00
(PID.TID 0000.0001) %MON advcfl_wvel_max              =   3.4746817944873E-16
(PID.TID 0000.0001) %MON advcfl_W_hf_max              =   0.0000000000000E+00
(PID.TID 0000.0001) %MON ke_max                       =   7.4455150023606E+02
(PID.TID 0000.0001) %MON ke_mean                      =   4.9661803126781E+02
(PID.TID 0000.0001) %MON ke_volint                    =   2.5323489810542E+22
(PID.TID 0000.0001) %MON ke_volmean                   =   4.9663214534537E+02
(PID.TID 0000.0001) // =======================================================
(PID.TID 0000.0001) // End MONITOR dynamic field statistics
(PID.TID 0000.0001) // =======================================================
(PID.TID 0000.0001) // =======================================================
(PID.TID 0000.0001) // Begin MONITOR dynamic field statistics
(PID.TID 0000.0001) // =======================================================
(PID.TID 0000.0001) %MON time_tsnumber                =                    36
(PID.TID 0000.0001) %MON time_secondsf                =   1.2960000000000E+05
(PID.TID 0000.0001) %MON time_secondsi                =                129600
(PID.TID 0000.0001) %MON dynstat_eta_max              =   0.0000000000000E+00
(PID.TID 0000.0001) %MON dynstat_eta_min              =   0.0000000000000E+00
(PID.TID 0000.0001) %MON dynstat_eta_mean             =   0.0000000000000E+00
(PID.TID 0000.0001) %MON dynstat_eta_sd               =   0.0000000000000E+00
(PID.TID 0000.0001) %MON dynstat_eta_del2             =   0.0000000000000E+00
(PID.TID 0000.0001) %MON dynstat_uvel_max             =   3.8588909729170E+01
(PID.TID 0000.0001) %MON dynstat_uvel_min             =  -2.6640751857540E+01
(PID.TID 0000.0001) %MON dynstat_uvel_mean            =   1.1767582051515E+01
(PID.TID 0000.0001) %MON dynstat_uvel_sd              =   1.8925013763619E+01
(PID.TID 0000.0001) %MON dynstat_uvel_del2            =   3.3977035061841E-02
(PID.TID 0000.0001) %MON dynstat_vvel_max             =   3.8588909729170E+01
(PID.TID 0000.0001) %MON dynstat_vvel_min             =  -2.6640751857540E+01
(PID.TID 0000.0001) %MON dynstat_vvel_mean            =   1.1767582051515E+01
(PID.TID 0000.0001) %MON dynstat_vvel_sd              =   1.8925013763619E+01
(PID.TID 0000.0001) %MON dynstat_vvel_del2            =   3.3977035061841E-02
(PID.TID 0000.0001) %MON dynstat_wvel_max             =   4.8259469367879E-15
(PID.TID 0000.0001) %MON dynstat_wvel_min             =  -4.8259469367879E-15
(PID.TID 0000.0001) %MON dynstat_wvel_mean            =  -2.6408038640800E-34
(PID.TID 0000.0001) %MON dynstat_wvel_sd              =   1.3451301434752E-15
(PID.TID 0000.0001) %MON dynstat_wvel_del2            =   1.3733452540939E-15
(PID.TID 0000.0001) %MON dynstat_theta_max            =   1.9231086965969E+00
(PID.TID 0000.0001) %MON dynstat_theta_min            =   9.9998388020475E-01
(PID.TID 0000.0001) %MON dynstat_theta_mean           =   1.0066874826115E+00
(PID.TID 0000.0001) %MON dynstat_theta_sd             =   6.0449060839222E-02
(PID.TID 0000.0001) %MON dynstat_theta_del2           =   4.3485884428430E-04
(PID.TID 0000.0001) %MON dynstat_salt_max             =   1.9383200568748E+00
(PID.TID 0000.0001) %MON dynstat_salt_min             =   9.9996553292902E-01
(PID.TID 0000.0001) %MON dynstat_salt_mean            =   1.0066663886109E+00
(PID.TID 0000.0001) %MON dynstat_salt_sd              =   6.0876719732936E-02
(PID.TID 0000.0001) %MON dynstat_salt_del2            =   4.4207563637609E-04
(PID.TID 0000.0001) %MON advcfl_uvel_max              =   1.0218201555446E+00
(PID.TID 0000.0001) %MON advcfl_vvel_max              =   1.0218201555446E+00
(PID.TID 0000.0001) %MON advcfl_wvel_max              =   3.4746817944873E-16
(PID.TID 0000.0001) %MON advcfl_W_hf_max              =   0.0000000000000E+00
(PID.TID 0000.0001) %MON ke_max                       =   7.4455150023606E+02
(PID.TID 0000.0001) %MON ke_mean                      =   4.9661803126781E+02
(PID.TID 0000.0001) %MON ke_volint                    =   2.5323489810542E+22
(PID.TID 0000.0001) %MON ke_volmean                   =   4.9663214534537E+02
(PID.TID 0000.0001) // =======================================================
(PID.TID 0000.0001) // End MONITOR dynamic field statistics
(PID.TID 0000.0001) // =======================================================
(PID.TID 0000.0001) // =======================================================
(PID.TID 0000.0001) // Begin MONITOR dynamic field statistics
(PID.TID 0000.0001) // =======================================================
(PID.TID 0000.0001) %MON time_tsnumber                =                    42
(PID.TID 0000.0001) %MON time_secondsf                =   1.5120000000000E+05
(PID.TID 0000.0001) %MON time_secondsi                =                151200
(PID.TID 0000.0001) %MON dynstat_eta_max              =   0.0000000000000E+00
(PID.TID 0000.0001) %MON dynstat_eta_min              =   0.0000000000000E+00
(PID.TID 0000.0001) %MON dynstat_eta_mean             =   0.0000000000000E+00
(PID.TID 0000.0001) %MON dynstat_eta_sd               =   0.0000000000000E+00
(PID.TID 0000.0001) %MON dynstat_eta_del2             =   0.0000000000000E+00
(PID.TID 0000.0001) %MON dynstat_uvel_max             =   3.8588909729170E+01
(PID.TID 0000.0001) %MON dynstat_uvel_min             =  -2.6640751857540E+01
(PID.TID 0000.0001) %MON dynstat_uvel_mean            =   1.1767582051515E+01
(PID.TID 0000.0001) %MON dynstat_uvel_sd              =   1.8925013763619E+01
(PID.TID 0000.0001) %MON dynstat_uvel_del2            =   3.3977035061841E-02
(PID.TID 0000.0001) %MON dynstat_vvel_max             =   3.8588909729170E+01
(PID.TID 0000.0001) %MON dynstat_vvel_min             =  -2.6640751857540E+01
(PID.TID 0000.0001) %MON dynstat_vvel_mean            =   1.1767582051515E+01
(PID.TID 0000.0001) %MON dynstat_vvel_sd              =   1.8925013763619E+01
(PID.TID 0000.0001) %MON dynstat_vvel_del2            =   3.3977035061841E-02
(PID.TID 0000.0001) %MON dynstat_wvel_max             =   4.8259469367879E-15
(PID.TID 0000.0001) %MON dynstat_wvel_min             =  -4.8259469367879E-15
(PID.TID 0000.0001) %MON dynstat_wvel_mean            =  -2.6408038640800E-34
(PID.TID 0000.0001) %MON dynstat_wvel_sd              =   1.3451301434752E-15
(PID.TID 0000.0001) %MON dynstat_wvel_del2            =   1.3733452540939E-15
(PID.TID 0000.0001) %MON dynstat_theta_max            =   1.9216070192395E+00
(PID.TID 0000.0001) %MON dynstat_theta_min            =   9.9998530048764E-01
(PID.TID 0000.0001) %MON dynstat_theta_mean           =   1.0066874826115E+00
(PID.TID 0000.0001) %MON dynstat_theta_sd             =   6.0261173028066E-02
(PID.TID 0000.0001) %MON dynstat_theta_del2           =   4.2882246276567E-04
(PID.TID 0000.0001) %MON dynstat_salt_max             =   1.9395559826395E+00
(PID.TID 0000.0001) %MON dynstat_salt_min             =   9.9997028159210E-01
(PID.TID 0000.0001) %MON dynstat_salt_mean            =   1.0067160358940E+00
(PID.TID 0000.0001) %MON dynstat_salt_sd              =   6.1144259018471E-02
(PID.TID 0000.0001) %MON dynstat_salt_del2            =   4.4277949675570E-04
(PID.TID 0000.0001) %MON advcfl_uvel_max              =   1.0218201555446E+00
(PID.TID 0000.0001) %MON advcfl_vvel_max              =   1.0218201555446E+00
(PID.TID 0000.0001) %MON advcfl_wvel_max              =   3.4746817944873E-16
(PID.TID 0000.0001) %MON advcfl_W_hf_max              =   0.0000000000000E+00
(PID.TID 0000.0001) %MON ke_max                       =   7.4455150023606E+02
(PID.TID 0000.0001) %MON ke_mean                      =   4.9661803126781E+02
(PID.TID 0000.0001) %MON ke_volint                    =   2.5323489810542E+22
(PID.TID 0000.0001) %MON ke_volmean                   =   4.9663214534537E+02
(PID.TID 0000.0001) // =======================================================
(PID.TID 0000.0001) // End MONITOR dynamic field statistics
(PID.TID 0000.0001) // =======================================================
(PID.TID 0000.0001) // =======================================================
(PID.TID 0000.0001) // Begin MONITOR dynamic field statistics
(PID.TID 0000.0001) // =======================================================
(PID.TID 0000.0001) %MON time_tsnumber                =                    48
(PID.TID 0000.0001) %MON time_secondsf                =   1.7280000000000E+05
(PID.TID 0000.0001) %MON time_secondsi                =                172800
(PID.TID 0000.0001) %MON dynstat_eta_max              =   0.0000000000000E+00
(PID.TID 0000.0001) %MON dynstat_eta_min              =   0.0000000000000E+00
(PID.TID 0000.0001) %MON dynstat_eta_mean             =   0.0000000000000E+00
(PID.TID 0000.0001) %MON dynstat_eta_sd               =   0.0000000000000E+00
(PID.TID 0000.0001) %MON dynstat_eta_del2             =   0.0000000000000E+00
(PID.TID 0000.0001) %MON dynstat_uvel_max             =   3.8588909729170E+01
(PID.TID 0000.0001) %MON dynstat_uvel_min             =  -2.6640751857540E+01
(PID.TID 0000.0001) %MON dynstat_uvel_mean            =   1.1767582051515E+01
(PID.TID 0000.0001) %MON dynstat_uvel_sd              =   1.8925013763619E+01
(PID.TID 0000.0001) %MON dynstat_uvel_del2            =   3.3977035061841E-02
(PID.TID 0000.0001) %MON dynstat_vvel_max             =   3.8588909729170E+01
(PID.TID 0000.0001) %MON dynstat_vvel_min             =  -2.6640751857540E+01
(PID.TID 0000.0001) %MON dynstat_vvel_mean            =   1.1767582051515E+01
(PID.TID 0000.0001) %MON dynstat_vvel_sd              =   1.8925013763619E+01
(PID.TID 0000.0001) %MON dynstat_vvel_del2            =   3.3977035061841E-02
(PID.TID 0000.0001) %MON dynstat_wvel_max             =   4.8259469367879E-15
(PID.TID 0000.0001) %MON dynstat_wvel_min             =  -4.8259469367879E-15
(PID.TID 0000.0001) %MON dynstat_wvel_mean            =  -2.6408038640800E-34
(PID.TID 0000.0001) %MON dynstat_wvel_sd              =   1.3451301434752E-15
(PID.TID 0000.0001) %MON dynstat_wvel_del2            =   1.3733452540939E-15
(PID.TID 0000.0001) %MON dynstat_theta_max            =   1.9158081319607E+00
(PID.TID 0000.0001) %MON dynstat_theta_min            =   9.9998627994271E-01
(PID.TID 0000.0001) %MON dynstat_theta_mean           =   1.0066874826115E+00
(PID.TID 0000.0001) %MON dynstat_theta_sd             =   6.0076842064499E-02
(PID.TID 0000.0001) %MON dynstat_theta_del2           =   4.2324963008515E-04
(PID.TID 0000.0001) %MON dynstat_salt_max             =   1.9405712279549E+00
(PID.TID 0000.0001) %MON dynstat_salt_min             =   9.9997434298268E-01
(PID.TID 0000.0001) %MON dynstat_salt_mean            =   1.0067476001840E+00
(PID.TID 0000.0001) %MON dynstat_salt_sd              =   6.1166600855460E-02
(PID.TID 0000.0001) %MON dynstat_salt_del2            =   4.4933725700093E-04
(PID.TID 0000.0001) %MON advcfl_uvel_max              =   1.0218201555446E+00
(PID.TID 0000.0001) %MON advcfl_vvel_max              =   1.0218201555446E+00
(PID.TID 0000.0001) %MON advcfl_wvel_max              =   3.4746817944873E-16
(PID.TID 0000.0001) %MON advcfl_W_hf_max              =   0.0000000000000E+00
(PID.TID 0000.0001) %MON ke_max                       =   7.4455150023606E+02
(PID.TID 0000.0001) %MON ke_mean                      =   4.9661803126781E+02
(PID.TID 0000.0001) %MON ke_volint                    =   2.5323489810542E+22
(PID.TID 0000.0001) %MON ke_volmean                   =   4.9663214534537E+02
(PID.TID 0000.0001) // =======================================================
(PID.TID 0000.0001) // End MONITOR dynamic field statistics
(PID.TID 0000.0001) // =======================================================
(PID.TID 0000.0001) // =======================================================
(PID.TID 0000.0001) // Field Current uVel   at iteration         48
(PID.TID 0000.0001) // CMIN =         -2.664075185753955E+01
(PID.TID 0000.0001) // CMAX =          3.858890972916976E+01
(PID.TID 0000.0001) // CINT =          2.415913392100345E+00
(PID.TID 0000.0001) // SYMBOLS (CMIN->CMAX): -abcdefghijklmnopqrstuvwxyz+
(PID.TID 0000.0001) //                  0.0: .
(PID.TID 0000.0001) // RANGE I (Lo:Hi:Step):(   1: 192:   1)
(PID.TID 0000.0001) // RANGE J (Lo:Hi:Step):(  32:   1:  -1)
(PID.TID 0000.0001) // RANGE K (Lo:Hi:Step):(   1:   1:   1)
(PID.TID 0000.0001) // =======================================================
(PID.TID 0000.0001) K =   1
(PID.TID 0000.0001)                I=10      I=20      I=30      I=40      I=50      I=60      I=70      I=80      I=90      I=100     I=110     I=120     I=130     I=140     I=150     I=160     I=170     I=180     I=190
(PID.TID 0000.0001) |--J--|123456789|123456789|123456789|123456789|123456789|123456789|123456789|123456789|123456789|123456789|123456789|123456789|123456789|123456789|123456789|123456789|123456789|123456789|123456789|12
(PID.TID 0000.0001)     32 xwwwwwwwwwwwwwwwwwwwwwwwwwwwwwwwxwwwwwwwwwwwwwwwwwwwwwwwwwwwwwwwea-----------------------------aeijjkkkkkkkkkkkk.kkkkkkkkkkkkllmeijjkkkkkkkkkkkk.kkkkkkkkkkkkllmquvvvvvvvvvvvvvvvvvvvvvvvvvvvvvu
(PID.TID 0000.0001)     31 xxxxwwwwwwwwwwwwwwwwwwwwwwwwwxxxxxxxwwwwwwwwwwwwwwwwwwwwwwwwwxxxecbaaaaaaaaaaaaaaaaaaaaaaaaaaabcegiijjjjkkkkkkkk.kkkkkkkkllllmmoegiijjjjkkkkkkkk.kkkkkkkkllllmmoqstuuuuuuuuuuuuuuuuuuuuuuuuuuuts
(PID.TID 0000.0001)     30 yxxxxxxxxxxxxxxxxxxxxxxxxxxxxxxxyxxxxxxxxxxxxxxxxxxxxxxxxxxxxxxxedcbbbaaaaaaaaaaaaaaaaaaaaabbbcdeghiijjjjjkkkkkk.kkkkkklllllmmnpeghiijjjjjkkkkkk.kkkkkklllllmmnpqrstttuuuuuuuuuuuuuuuuuuuuutttsr
(PID.TID 0000.0001)     29 yyyyxxxxxxxxxxxxxxxxxxxxxxxxxyyyyyyyxxxxxxxxxxxxxxxxxxxxxxxxxyyyeddccbbbbbbbbbbbbbbbbbbbbbbbccddefghiijjjjjkkkkk.kkkkklllllmmnopefghiijjjjjkkkkk.kkkkklllllmmnopqrssstttttttttttttttttttttttsssr
(PID.TID 0000.0001)     28 yyyyyyyyyyyxxxxxxxxxxxyyyyyyyyyyyyyyyyyyyyyxxxxxxxxxxxyyyyyyyyyyfeddccccccbbbbbbbbbbbbbccccccddeffghiiijjjjjkkkk.kkkklllllmmnnopffghiiijjjjjkkkk.kkkklllllmmnnoppqrrssssstttttttttttttttsssssrrq
(PID.TID 0000.0001)     27 yyyyyyyyyyyyyyyyyyyyyyyyyyyyyyyyyyyyyyyyyyyyyyyyyyyyyyyyyyyyyyyyfeeddddcccccccccccccccccccddddeefgghhiijjjjjkkkk.kkkklllllmmnnoofgghhiijjjjjkkkk.kkkklllllmmnnoopqqrrrsssssssssssssssssssssrrrqq
(PID.TID 0000.0001)     26 zzzzyyyyyyyyyyyyyyyyyyyyyyyyyzzzzzzzyyyyyyyyyyyyyyyyyyyyyyyyyzzzffeeedddddddddddddddddddddddeeeffgghhiijjjjjkkkk.kkklllllmmmnnoofgghhiijjjjjkkkk.kkklllllmmmnnooppqqqrrrrrrrrrrrrrrrrrrrrrrrqqqp
(PID.TID 0000.0001)     25 zzzzzzzzzzzzzzzzzzzzzzzzzzzzzzzzzzzzzzzzzzzzzzzzzzzzzzzzzzzzzzzzgfffeeeeeeeedddddddddeeeeeeeefffgghhiiijjjjjkkkk.kkklllllmmmnnnogghhiiijjjjjkkkk.kkklllllmmmnnnoopppqqqqqqrrrrrrrrrrrrrqqqqqqppp
(PID.TID 0000.0001)     24 zzzzzzzzzzzzzzzzzzzzzzzzzzzzzzzzzzzzzzzzzzzzzzzzzzzzzzzzzzzzzzzzgggfffffeeeeeeeeeeeeeeeeefffffggghhhiiijjjjjkkkk.kkkllllllmmmnnnghhhiiijjjjjkkkk.kkkllllllmmmnnnoopppppqqqqqqqqqqqqqqqqqqqpppppo
(PID.TID 0000.0001)     23 zzzzzzzzzzzzzzzzzzzzzzzzzzzzzzzzzzzzzzzzzzzzzzzzzzzzzzzzzzzzzzzzhggggfffffffffffffffffffffffgggghhhiiiijjjjjkkkk.kkkklllllmmmmnnhhhiiiijjjjjkkkk.kkkklllllmmmmnnnoooopppppppppppppppppppppppoooo
(PID.TID 0000.0001)     22 zzzzzzzzzzzzzzzzzzzzzzzzzzzzzzzzzzzzzzzzzzzzzzzzzzzzzzzzzzzzzzzzhhhhggggggggggggggggggggggggghhhhhiiiijjjjjjkkkk.kkkkllllllmmmmnhhiiiijjjjjjkkkk.kkkkllllllmmmmnnnnooooooooooooooooooooooooooonn
(PID.TID 0000.0001)     21 ++++++++++++++++++++++++++++++++++++++++++++++++++++++++++++++++ihhhhhhhhhhggggggggggghhhhhhhhhhiiiiijjjjjjkkkkk.kkkkkllllllmmmmiiiiijjjjjjkkkkk.kkkkkllllllmmmmmnnnnnnnnnooooooooooooonnnnnnnnn
(PID.TID 0000.0001)     20 ++++++++++++++++++++++++++++++++++++++++++++++++++++++++++++++++iiiiiihhhhhhhhhhhhhhhhhhhhhiiiiiiiijjjjjjjkkkkkk.kkkkkklllllllmmiiijjjjjjjkkkkkk.kkkkkklllllllmmmmmmmmnnnnnnnnnnnnnnnnnnnnnmmmmm
(PID.TID 0000.0001)     19 ++++++++++++++++++++++++++++++++++++++++++++++++++++++++++++++++jjiiiiiiiiiiiiiiiiiiiiiiiiiiiiijjjjjjjjjkkkkkkkk.kkkkkkklllllllljjjjjjjjkkkkkkkk.kkkkkkkllllllllllmmmmmmmmmmmmmmmmmmmmmmmmmmmmml
(PID.TID 0000.0001)     18 ++++++++++++++++++++++++++++++++++++++++++++++++++++++++++++++++jjjjjjjjjjjjjjjjjjjjjjjjjjjjjjjjjjjjjkkkkkkkkkkk.kkkkkkkkkkklllljjjjjkkkkkkkkkkk.kkkkkkkkkkkllllllllllllllllllllllllllllllllllll
(PID.TID 0000.0001)     17 ++++++++++++++++++++++++++++++++++++++++++++++++++++++++++++++++kkkkkkkkkkkkkkkkkkkkkkkkkkkkkkkkkkkkkkkkkkkkkkkk.kkkkkkkkkkkkkkkkkkkkkkkkkkkkkkk.kkkkkkkkkkkkkkkkkkkkkkkkkkkkkkkkkkkkkkkkkkkkkkk
(PID.TID 0000.0001)     16 ++++++++++++++++++++++++++++++++++++++++++++++++++++++++++++++++kkkkkkkkkkkkkkkkkkkkkkkkkkkkkkkkkkkkkkkkkkkkkkkk.kkkkkkkkkkkkkkkkkkkkkkkkkkkkkkk.kkkkkkkkkkkkkkkkkkkkkkkkkkkkkkkkkkkkkkkkkkkkkkk
(PID.TID 0000.0001)     15 ++++++++++++++++++++++++++++++++++++++++++++++++++++++++++++++++lllllllllllllllllllllllllllllllllllllkkkkkkkkkkk.kkkkkkkkkkkjjjjlllllkkkkkkkkkkk.kkkkkkkkkkkjjjjjjjjjjjjjjjjjjjjjjjjjjjjjjjjjjjj
(PID.TID 0000.0001)     14 ++++++++++++++++++++++++++++++++++++++++++++++++++++++++++++++++llmmmmmmmmmmmmmmmmmmmmmmmmmmmmmllllllllllkkkkkkk.kkkkkkkkjjjjjjjlllllllllkkkkkkk.kkkkkkkkjjjjjjjjjiiiiiiiiiiiiiiiiiiiiiiiiiiiiij
(PID.TID 0000.0001)     13 ++++++++++++++++++++++++++++++++++++++++++++++++++++++++++++++++mmmmmmnnnnnnnnnnnnnnnnnnnnnmmmmmmmmlllllllkkkkkk.kkkkkkjjjjjjjiimmmlllllllkkkkkk.kkkkkkjjjjjjjiiiiiiiihhhhhhhhhhhhhhhhhhhhhiiiii
(PID.TID 0000.0001)     12 ++++++++++++++++++++++++++++++++++++++++++++++++++++++++++++++++mnnnnnnnnnooooooooooooonnnnnnnnnmmmmmllllllkkkkk.kkkkkjjjjjjiiiimmmmmllllllkkkkk.kkkkkjjjjjjiiiiihhhhhhhhhhggggggggggghhhhhhhhhh
(PID.TID 0000.0001)     11 zzzzzzzzzzzzzzzzzzzzzzzzzzzzzzzzzzzzzzzzzzzzzzzzzzzzzzzzzzzzzzzznnnooooooooooooooooooooooooooonnnnmmmmllllllkkkk.kkkkjjjjjjiiiihnnmmmmllllllkkkk.kkkkjjjjjjiiiihhhhhggggggggggggggggggggggggghhh
(PID.TID 0000.0001)     10 zzzzzzzzzzzzzzzzzzzzzzzzzzzzzzzzzzzzzzzzzzzzzzzzzzzzzzzzzzzzzzzznoooopppppppppppppppppppppppoooonnnmmmmlllllkkkk.kkkkjjjjjiiiihhnnnmmmmlllllkkkk.kkkkjjjjjiiiihhhggggfffffffffffffffffffffffgggg
(PID.TID 0000.0001)      9 zzzzzzzzzzzzzzzzzzzzzzzzzzzzzzzzzzzzzzzzzzzzzzzzzzzzzzzzzzzzzzzzoopppppqqqqqqqqqqqqqqqqqqqpppppoonnnmmmllllllkkk.kkkkjjjjjiiihhhonnnmmmllllllkkk.kkkkjjjjjiiihhhgggfffffeeeeeeeeeeeeeeeeefffffgg
(PID.TID 0000.0001)      8 zzzzzzzzzzzzzzzzzzzzzzzzzzzzzzzzzzzzzzzzzzzzzzzzzzzzzzzzzzzzzzzzopppqqqqqqrrrrrrrrrrrrrqqqqqqpppoonnnmmmlllllkkk.kkkkjjjjjiiihhgoonnnmmmlllllkkk.kkkkjjjjjiiihhggfffeeeeeeeedddddddddeeeeeeeefff
(PID.TID 0000.0001)      7 zzzzyyyyyyyyyyyyyyyyyyyyyyyyyzzzzzzzyyyyyyyyyyyyyyyyyyyyyyyyyzzzppqqqrrrrrrrrrrrrrrrrrrrrrrrqqqppoonnmmmlllllkkk.kkkkjjjjjiihhggpoonnmmmlllllkkk.kkkkjjjjjiihhggffeeedddddddddddddddddddddddeeef
(PID.TID 0000.0001)      6 yyyyyyyyyyyyyyyyyyyyyyyyyyyyyyyyyyyyyyyyyyyyyyyyyyyyyyyyyyyyyyyypqqrrrsssssssssssssssssssssrrrqqpoonnmmlllllkkkk.kkkkjjjjjiihhggpoonnmmlllllkkkk.kkkkjjjjjiihhggfeeddddcccccccccccccccccccddddee
(PID.TID 0000.0001)      5 yyyyyyyyyyyxxxxxxxxxxxyyyyyyyyyyyyyyyyyyyyyxxxxxxxxxxxyyyyyyyyyypqrrssssstttttttttttttttsssssrrqpponnmmlllllkkkk.kkkkjjjjjiiihgfpponnmmlllllkkkk.kkkkjjjjjiiihgffeddccccccbbbbbbbbbbbbbccccccdde
(PID.TID 0000.0001)      4 yyyyxxxxxxxxxxxxxxxxxxxxxxxxxyyyyyyyxxxxxxxxxxxxxxxxxxxxxxxxxyyyqrssstttttttttttttttttttttttsssrqponmmlllllkkkkk.kkkkkjjjjjiihgfqponmmlllllkkkkk.kkkkkjjjjjiihgfeddccbbbbbbbbbbbbbbbbbbbbbbbccdd
(PID.TID 0000.0001)      3 yxxxxxxxxxxxxxxxxxxxxxxxxxxxxxxxyxxxxxxxxxxxxxxxxxxxxxxxxxxxxxxxqrstttuuuuuuuuuuuuuuuuuuuuutttsrqpnmmlllllkkkkkk.kkkkkkjjjjjiihgqpnmmlllllkkkkkk.kkkkkkjjjjjiihgedcbbbaaaaaaaaaaaaaaaaaaaaabbbcd
(PID.TID 0000.0001)      2 xxxxwwwwwwwwwwwwwwwwwwwwwwwwwxxxxxxxwwwwwwwwwwwwwwwwwwwwwwwwwxxxqstuuuuuuuuuuuuuuuuuuuuuuuuuuutsqommllllkkkkkkkk.kkkkkkkkjjjjiigqommllllkkkkkkkk.kkkkkkkkjjjjiigecbaaaaaaaaaaaaaaaaaaaaaaaaaaabc
(PID.TID 0000.0001)      1 xwwwwwwwwwwwwwwwwwwwwwwwwwwwwwwwxwwwwwwwwwwwwwwwwwwwwwwwwwwwwwwwquvvvvvvvvvvvvvvvvvvvvvvvvvvvvvuqmllkkkkkkkkkkkk.kkkkkkkkkkkkjjiqmllkkkkkkkkkkkk.kkkkkkkkkkkkjjiea-----------------------------a
(PID.TID 0000.0001) // =======================================================
(PID.TID 0000.0001) // END OF FIELD                                          =
(PID.TID 0000.0001) // =======================================================
(PID.TID 0000.0001) 
(PID.TID 0000.0001) // =======================================================
(PID.TID 0000.0001) // Field Current vVel   at iteration         48
(PID.TID 0000.0001) // CMIN =         -2.664075185753955E+01
(PID.TID 0000.0001) // CMAX =          3.858890972916976E+01
(PID.TID 0000.0001) // CINT =          2.415913392100345E+00
(PID.TID 0000.0001) // SYMBOLS (CMIN->CMAX): -abcdefghijklmnopqrstuvwxyz+
(PID.TID 0000.0001) //                  0.0: .
(PID.TID 0000.0001) // RANGE I (Lo:Hi:Step):(   1: 192:   1)
(PID.TID 0000.0001) // RANGE J (Lo:Hi:Step):(  32:   1:  -1)
(PID.TID 0000.0001) // RANGE K (Lo:Hi:Step):(   1:   1:   1)
(PID.TID 0000.0001) // =======================================================
(PID.TID 0000.0001) K =   1
(PID.TID 0000.0001)                I=10      I=20      I=30      I=40      I=50      I=60      I=70      I=80      I=90      I=100     I=110     I=120     I=130     I=140     I=150     I=160     I=170     I=180     I=190
(PID.TID 0000.0001) |--J--|123456789|123456789|123456789|123456789|123456789|123456789|123456789|123456789|123456789|123456789|123456789|123456789|123456789|123456789|123456789|123456789|123456789|123456789|123456789|12
(PID.TID 0000.0001)     32 iggffggghhhiijjkkllmmnnnooopppomiggffggghhhiijjkkllmmnnnooopppomacddeeffgghhijjkkllmnnooppqqrrsuwxxyyyzzzzz++++++++++zzzzzyyyxxwwxxyyyzzzzz++++++++++zzzzzyyyxxwusrrqqppoonnmllkkjjihhggffeeddca
(PID.TID 0000.0001)     31 jihgggghhhiiijjkkllmmmnnnoooonmljihgggghhhiiijjkkllmmmnnnoooonml-bcddeefgghhiijkklmmnnoppqqrsstvwxxyyyzzzzz++++++++++zzzzzyyyxxwwxxyyyzzzzz++++++++++zzzzzyyyxxwvtssrqqpponnmmlkkjiihhggfeeddcb-
(PID.TID 0000.0001)     30 jiihhhhhhiiijjjkklllmmmnnnnnnmmljiihhhhhhiiijjjkklllmmmnnnnnnmml-abcddeffghhiijkklmmnooppqrrstuvwxxyyyzzzzz++++++++++zzzzzyyyxxwwxxyyyzzzzz++++++++++zzzzzyyyxxwvutsrrqppoonmmlkkjiihhgffeddcba-
(PID.TID 0000.0001)     29 kjiiihhiiiiijjjkklllmmmmnnnnmmlkkjiiihhiiiiijjjkklllmmmmnnnnmmlk-abccdeefgghiijkklmmnoopqqrsstuvwwxxyyyzzzz++++++++++zzzzyyyxxwwwwxxyyyzzzz++++++++++zzzzyyyxxwwvutssrqqpoonmmlkkjiihggfeedccba-
(PID.TID 0000.0001)     28 kjjiiiiiiiijjjkkkklllmmmmmmmmllkkjjiiiiiiiijjjkkkklllmmmmmmmmllk-abbcddeffghiijkklmmnoppqrrsttuvwwxxyyyzzzz++++++++++zzzzyyyxxwwwwxxyyyzzzz++++++++++zzzzyyyxxwwvuttsrrqpponmmlkkjiihgffeddcbba-
(PID.TID 0000.0001)     27 kjjjiiiiiijjjjkkkkllllmmmmmmlllkkjjjiiiiiijjjjkkkkllllmmmmmmlllk-aabcddeffghhijkklmnnoppqrsstuuvwwxxyyyzzzz++++++++++zzzzyyyxxwwwwxxyyyzzzz++++++++++zzzzyyyxxwwvuutssrqpponnmlkkjihhgffeddcbaa-
(PID.TID 0000.0001)     26 kjjjjjjjjjjjjjkkkkllllllmmlllllkkjjjjjjjjjjjjjkkkkllllllmmlllllk-aabccdeffghhijkklmnnopqqrsstuuvwwxxyyyzzzz++++++++++zzzzyyyxxwwwwxxyyyzzzz++++++++++zzzzyyyxxwwvuutssrqqponnmlkkjihhgffedccbaa-
(PID.TID 0000.0001)     25 kkjjjjjjjjjjjkkkkkllllllllllllkkkkjjjjjjjjjjjkkkkkllllllllllllkk-aabccdeefghhijkklmnnopqqrsstuuvwwxxyyyzzzz++++++++++zzzzyyyxxwwwwxxyyyzzzz++++++++++zzzzyyyxxwwvuutssrqqponnmlkkjihhgfeedccbaa-
(PID.TID 0000.0001)     24 kkjjjjjjjjjjjkkkkkklllllllllllkkkkjjjjjjjjjjjkkkkkklllllllllllkk-aabccdeefghhijkklmnnopqqrsttuuvwwxxyyyzzzz++++++++++zzzzyyyxxwwwwxxyyyzzzz++++++++++zzzzyyyxxwwvuuttsrqqponnmlkkjihhgfeedccbaa-
(PID.TID 0000.0001)     23 kkkjjjjjjjjjkkkkkkkklllllllllkkkkkkjjjjjjjjjkkkkkkkklllllllllkkk-aabbcdeefghhijkklmnoopqrrsttuuvwwxxyyyzzzz++++++++++zzzzyyyxxwwwwxxyyyzzzz++++++++++zzzzyyyxxwwvuuttsrrqpoonmlkkjihhgfeedcbbaa-
(PID.TID 0000.0001)     22 kkkkjjjjjjjkkkkkkkkkklllllllkkkkkkkkjjjjjjjkkkkkkkkkklllllllkkkk-aabbcdeefgghijkklmnoopqrrsttuuvwwxxxyyzzzz++++++++++zzzzyyxxxwwwwxxxyyzzzz++++++++++zzzzyyxxxwwvuuttsrrqpoonmlkkjihggfeedcbbaa-
(PID.TID 0000.0001)     21 kkkkkkkkkkkkkkkkkkkkkkklllkkkkkkkkkkkkkkkkkkkkkkkkkkkkklllkkkkkk-aabbcddefgghijkklmnoopqrrsttuuvwwxxxyyzzzz++++++++++zzzzyyxxxwwwwxxxyyzzzz++++++++++zzzzyyxxxwwvuuttsrrqpoonmlkkjihggfeddcbbaa-
(PID.TID 0000.0001)     20 kkkkkkkkkkkkkkkkkkkkkkkkkkkkkkkkkkkkkkkkkkkkkkkkkkkkkkkkkkkkkkkk-aabbcddefgghijkklmnoopqrrsttuuvwwxxxyyzzzz++++++++++zzzzyyxxxwwwwxxxyyzzzz++++++++++zzzzyyxxxwwvuuttsrrqpoonmlkkjihggfeddcbbaa-
(PID.TID 0000.0001)     19 kkkkkkkkkkkkkkkkkkkkkkkkkkkkkkkkkkkkkkkkkkkkkkkkkkkkkkkkkkkkkkkk-aabbcddefgghijkklmnoopqrrsttuuvwwxxxyyzzzz++++++++++zzzzyyxxxwwwwxxxyyzzzz++++++++++zzzzyyxxxwwvuuttsrrqpoonmlkkjihggfeddcbbaa-
(PID.TID 0000.0001)     18 kkkkkkkkkkkkkkkkkkkkkkkkkkkkkkkkkkkkkkkkkkkkkkkkkkkkkkkkkkkkkkkk-aabbcddefgghijkklmnoopqrrsttuuvwwxxxyyzzzz++++++++++zzzzyyxxxwwwwxxxyyzzzz++++++++++zzzzyyxxxwwvuuttsrrqpoonmlkkjihggfeddcbbaa-
(PID.TID 0000.0001)     17 ................................................................-aabbcddefgghijkklmnoopqrrsttuuvwwxxxyyzzzz++++++++++zzzzyyxxxwwwwxxxyyzzzz++++++++++zzzzyyxxxwwvuuttsrrqpoonmlkkjihggfeddcbbaa-
(PID.TID 0000.0001)     16 kkkkkkkkkkkkkkkkkkkkkkkkkkkkkkkkkkkkkkkkkkkkkkkkkkkkkkkkkkkkkkkk-aabbcddefgghijkklmnoopqrrsttuuvwwxxxyyzzzz++++++++++zzzzyyxxxwwwwxxxyyzzzz++++++++++zzzzyyxxxwwvuuttsrrqpoonmlkkjihggfeddcbbaa-
(PID.TID 0000.0001)     15 kkkkkkkkkkkkkkkkkkkkkkkkkkkkkkkkkkkkkkkkkkkkkkkkkkkkkkkkkkkkkkkk-aabbcddefgghijkklmnoopqrrsttuuvwwxxxyyzzzz++++++++++zzzzyyxxxwwwwxxxyyzzzz++++++++++zzzzyyxxxwwvuuttsrrqpoonmlkkjihggfeddcbbaa-
(PID.TID 0000.0001)     14 kkkkkkkkkkkkkkkkkkkkkkkkkkkkkkkkkkkkkkkkkkkkkkkkkkkkkkkkkkkkkkkk-aabbcddefgghijkklmnoopqrrsttuuvwwxxxyyzzzz++++++++++zzzzyyxxxwwwwxxxyyzzzz++++++++++zzzzyyxxxwwvuuttsrrqpoonmlkkjihggfeddcbbaa-
(PID.TID 0000.0001)     13 kkkkkklllkkkkkkkkkkkkkkkkkkkkkkkkkkkkklllkkkkkkkkkkkkkkkkkkkkkkk-aabbcddefgghijkklmnoopqrrsttuuvwwxxxyyzzzz++++++++++zzzzyyxxxwwwwxxxyyzzzz++++++++++zzzzyyxxxwwvuuttsrrqpoonmlkkjihggfeddcbbaa-
(PID.TID 0000.0001)     12 kkkklllllllkkkkkkkkkkjjjjjjjkkkkkkkklllllllkkkkkkkkkkjjjjjjjkkkk-aabbcdeefgghijkklmnoopqrrsttuuvwwxxxyyzzzz++++++++++zzzzyyxxxwwwwxxxyyzzzz++++++++++zzzzyyxxxwwvuuttsrrqpoonmlkkjihggfeedcbbaa-
(PID.TID 0000.0001)     11 kkklllllllllkkkkkkkkjjjjjjjjjkkkkkklllllllllkkkkkkkkjjjjjjjjjkkk-aabbcdeefghhijkklmnoopqrrsttuuvwwxxyyyzzzz++++++++++zzzzyyyxxwwwwxxyyyzzzz++++++++++zzzzyyyxxwwvuuttsrrqpoonmlkkjihhgfeedcbbaa-
(PID.TID 0000.0001)     10 kklllllllllllkkkkkkjjjjjjjjjjjkkkklllllllllllkkkkkkjjjjjjjjjjjkk-aabccdeefghhijkklmnnopqqrsttuuvwwxxyyyzzzz++++++++++zzzzyyyxxwwwwxxyyyzzzz++++++++++zzzzyyyxxwwvuuttsrqqponnmlkkjihhgfeedccbaa-
(PID.TID 0000.0001)      9 kkllllllllllllkkkkkjjjjjjjjjjjkkkkllllllllllllkkkkkjjjjjjjjjjjkk-aabccdeefghhijkklmnnopqqrsstuuvwwxxyyyzzzz++++++++++zzzzyyyxxwwwwxxyyyzzzz++++++++++zzzzyyyxxwwvuutssrqqponnmlkkjihhgfeedccbaa-
(PID.TID 0000.0001)      8 klllllmmllllllkkkkjjjjjjjjjjjjjkklllllmmllllllkkkkjjjjjjjjjjjjjk-aabccdeffghhijkklmnnopqqrsstuuvwwxxyyyzzzz++++++++++zzzzyyyxxwwwwxxyyyzzzz++++++++++zzzzyyyxxwwvuutssrqqponnmlkkjihhgffedccbaa-
(PID.TID 0000.0001)      7 klllmmmmmmllllkkkkjjjjiiiiiijjjkklllmmmmmmllllkkkkjjjjiiiiiijjjk-aabcddeffghhijkklmnnoppqrsstuuvwwxxyyyzzzz++++++++++zzzzyyyxxwwwwxxyyyzzzz++++++++++zzzzyyyxxwwvuutssrqpponnmlkkjihhgffeddcbaa-
(PID.TID 0000.0001)      6 kllmmmmmmmmlllkkkkjjjiiiiiiiijjkkllmmmmmmmmlllkkkkjjjiiiiiiiijjk-abbcddeffghiijkklmmnoppqrrsttuvwwxxyyyzzzz++++++++++zzzzyyyxxwwwwxxyyyzzzz++++++++++zzzzyyyxxwwvuttsrrqpponmmlkkjiihgffeddcbba-
(PID.TID 0000.0001)      5 klmmnnnnmmmmlllkkjjjiiiiihhiiijkklmmnnnnmmmmlllkkjjjiiiiihhiiijk-abccdeefgghiijkklmmnoopqqrsstuvwwxxyyyzzzz++++++++++zzzzyyyxxwwwwxxyyyzzzz++++++++++zzzzyyyxxwwvutssrqqpoonmmlkkjiihggfeedccba-
(PID.TID 0000.0001)      4 lmmnnnnnnmmmlllkkjjjiiihhhhhhiijlmmnnnnnnmmmlllkkjjjiiihhhhhhiij-abcddeffghhiijkklmmnooppqrrstuvwxxyyyzzzzz++++++++++zzzzzyyyxxwwxxyyyzzzzz++++++++++zzzzzyyyxxwvutsrrqppoonmmlkkjiihhgffeddcba-
(PID.TID 0000.0001)      3 lmnoooonnnmmmllkkjjiiihhhgggghijlmnoooonnnmmmllkkjjiiihhhgggghij-bcddeefgghhiijkklmmnnoppqqrsstvwxxyyyzzzzz++++++++++zzzzzyyyxxwwxxyyyzzzzz++++++++++zzzzzyyyxxwvtssrqqpponnmmlkkjiihhggfeeddcb-
(PID.TID 0000.0001)      2 mopppooonnnmmllkkjjiihhhgggffggimopppooonnnmmllkkjjiihhhgggffggiacddeeffgghhijjkkllmnnooppqqrrsuwxxyyyzzzzz++++++++++zzzzzyyyxxwwxxyyyzzzzz++++++++++zzzzzyyyxxwusrrqqppoonnmllkkjjihhggffeeddca
(PID.TID 0000.0001)      1 qqqqpppoonnmmllkkjjiihhggfffeeeeqqqqpppoonnmmllkkjjiihhggfffeeeeeeeefffgghhiijjkkllmmnnoopppqqqqxxyyyyzzzzz++++++++++zzzzzyyyyxxxxyyyyzzzzz++++++++++zzzzzyyyyxxqqqqpppoonnmmllkkjjiihhggfffeeee
(PID.TID 0000.0001) // =======================================================
(PID.TID 0000.0001) // END OF FIELD                                          =
(PID.TID 0000.0001) // =======================================================
(PID.TID 0000.0001) 
(PID.TID 0000.0001) // =======================================================
(PID.TID 0000.0001) // Field Current theta  at iteration         48
(PID.TID 0000.0001) // CMIN =          9.999862799427122E-01
(PID.TID 0000.0001) // CMAX =          1.915808131960713E+00
(PID.TID 0000.0001) // CINT =          3.391932785251854E-02
(PID.TID 0000.0001) // SYMBOLS (CMIN->CMAX): -abcdefghijklmnopqrstuvwxyz+
(PID.TID 0000.0001) //                  0.0: .
(PID.TID 0000.0001) // RANGE I (Lo:Hi:Step):(   1: 192:   1)
(PID.TID 0000.0001) // RANGE J (Lo:Hi:Step):(  32:   1:  -1)
(PID.TID 0000.0001) // RANGE K (Lo:Hi:Step):(   1:   1:   1)
(PID.TID 0000.0001) // =======================================================
(PID.TID 0000.0001) K =   1
(PID.TID 0000.0001)                I=10      I=20      I=30      I=40      I=50      I=60      I=70      I=80      I=90      I=100     I=110     I=120     I=130     I=140     I=150     I=160     I=170     I=180     I=190
(PID.TID 0000.0001) |--J--|123456789|123456789|123456789|123456789|123456789|123456789|123456789|123456789|123456789|123456789|123456789|123456789|123456789|123456789|123456789|123456789|123456789|123456789|123456789|12
(PID.TID 0000.0001)     32 ------------------------------------------------------------------------------------------------------------------------------------------------------------------------------------------------
(PID.TID 0000.0001)     31 ------------------------------------------------------------------------------------------------------------------------------------------------------------------------------------------------
(PID.TID 0000.0001)     30 ------------------------------------------------------------------------------------------------------------------------------------------------------------------------------------------------
(PID.TID 0000.0001)     29 ------------------------------------------------------------------------------------------------------------------------------------------------------------------------------------------------
(PID.TID 0000.0001)     28 ------------------------------------------------------------------------------------------------------------------------------------------------------------------------------------------------
(PID.TID 0000.0001)     27 ------------------------------------------------------------------------------------------------------------------------------------------------------------------------------------------------
(PID.TID 0000.0001)     26 ------------------------------------------------------------------------------------------------------------------------------------------------------------------------------------------------
(PID.TID 0000.0001)     25 ------------------------------------------------------------------------------------------------------------------------------------------------------------------------------------------------
(PID.TID 0000.0001)     24 ------------------------------------------------------------------------------------------------------------------------------------------------------------------------------------------------
(PID.TID 0000.0001)     23 ------------------------------------------------------------------------------------------------------------------------------------------------------------------------------------------------
(PID.TID 0000.0001)     22 ------------------------------------------------------------------------------------------------------------------------------------------------------------------------------------------------
(PID.TID 0000.0001)     21 ------------------------------------------------------------------------------------------------------------------------------------------------------------------------------------------------
(PID.TID 0000.0001)     20 ------------------------------------------------------------------------------------------------------------------------------------------------------------------------------------------------
(PID.TID 0000.0001)     19 ------------------------------------------------------------------------------------------------------------------------------------------------------------------------------------------------
(PID.TID 0000.0001)     18 ------------------------------------------------------------------------------------------------------------------------------------------------------------------------------------------------
(PID.TID 0000.0001)     17 ---------------------------------------------------------------a--------------------------------------------------------------------------------------------------------------------------------
(PID.TID 0000.0001)     16 ---------------------------------------------------------------a--------------------------------------------------------------------------------------------------------------------------------
(PID.TID 0000.0001)     15 ------------------------------------------------------------------------------------------------------------------------------------------------------------------------------------------------
(PID.TID 0000.0001)     14 ------------------------------------------------------------------------------------------------------------------------------------------------------------------------------------------------
(PID.TID 0000.0001)     13 ------------------------------------------------------------------------------------------------------------------------------------------------------------------------------------------------
(PID.TID 0000.0001)     12 ------------------------------------------------------------------------------------------------------------------------------------------------------------------------------------------------
(PID.TID 0000.0001)     11 -------------------------------------------------------------------------------------------------------------abccba-----------------------------------------------------------------------------
(PID.TID 0000.0001)     10 ------------------------------------------------------------------------------------------------------------bdghhgdb----------------------------------------------------------------------------
(PID.TID 0000.0001)      9 -----------------------------------------------------------------------------------------------------------beimoomieb---------------------------------------------------------------------------
(PID.TID 0000.0001)      8 -----------------------------------------------------------------------------------------------------------chnsvvsnhc---------------------------------------------------------------------------
(PID.TID 0000.0001)      7 ----------------------------------------------------------------------------------------------------------adjqwzzwqjda--------------------------------------------------------------------------
(PID.TID 0000.0001)      6 ----------------------------------------------------------------------------------------------------------aekrx++xrkea--------------------------------------------------------------------------
(PID.TID 0000.0001)      5 ----------------------------------------------------------------------------------------------------------adjqwzzwqjda--------------------------------------------------------------------------
(PID.TID 0000.0001)      4 ----------------------------------------------------------------------------------------------------------adhnsvvsnhda--------------------------------------------------------------------------
(PID.TID 0000.0001)      3 -----------------------------------------------------------------------------------------------------------bejnppnjeb---------------------------------------------------------------------------
(PID.TID 0000.0001)      2 -----------------------------------------------------------------------------------------------------------acehiiheca---------------------------------------------------------------------------
(PID.TID 0000.0001)      1 ------------------------------------------------------------------------------------------------------------abcddcba----------------------------------------------------------------------------
(PID.TID 0000.0001) // =======================================================
(PID.TID 0000.0001) // END OF FIELD                                          =
(PID.TID 0000.0001) // =======================================================
(PID.TID 0000.0001) 
(PID.TID 0000.0001) // =======================================================
(PID.TID 0000.0001) // Field Current etaN   at iteration         48
(PID.TID 0000.0001) // CMIN =          1.000000000000000E+32
(PID.TID 0000.0001) // CMAX =         -1.000000000000000E+32
(PID.TID 0000.0001) // CINT =          0.000000000000000E+00
(PID.TID 0000.0001) // SYMBOLS (CMIN->CMAX): -abcdefghijklmnopqrstuvwxyz+
(PID.TID 0000.0001) //                  0.0: .
(PID.TID 0000.0001) // RANGE I (Lo:Hi:Step):(  -2: 195:   1)
(PID.TID 0000.0001) // RANGE J (Lo:Hi:Step):(  35:  -2:  -1)
(PID.TID 0000.0001) // RANGE K (Lo:Hi:Step):(   1:   1:   1)
(PID.TID 0000.0001) // =======================================================
(PID.TID 0000.0001) K =   1
(PID.TID 0000.0001)                I=7       I=17      I=27      I=31      I=41      I=51      I=61      I=65      I=75      I=85      I=95      I=99      I=109     I=119     I=129     I=133     I=143     I=153     I=163     I=167     I=177     I=187
(PID.TID 0000.0001) |--J--|**0123456|890123456|890123456|890123450|234567890|234567890|234567890|234567234|678901234|678901234|678901234|678945678|012345678|012345678|012345678|016789012|456789012|456789012|456789012|890123456|890123456|890123456|89012345
(PID.TID 0000.0001)     35 ....................................................................................................................................................................................................................................
(PID.TID 0000.0001)     34 ....................................................................................................................................................................................................................................
(PID.TID 0000.0001)     33 ....................................................................................................................................................................................................................................
(PID.TID 0000.0001)     32 ....................................................................................................................................................................................................................................
(PID.TID 0000.0001)     31 ....................................................................................................................................................................................................................................
(PID.TID 0000.0001)     30 ....................................................................................................................................................................................................................................
(PID.TID 0000.0001)     29 ....................................................................................................................................................................................................................................
(PID.TID 0000.0001)     28 ....................................................................................................................................................................................................................................
(PID.TID 0000.0001)     27 ....................................................................................................................................................................................................................................
(PID.TID 0000.0001)     26 ....................................................................................................................................................................................................................................
(PID.TID 0000.0001)     25 ....................................................................................................................................................................................................................................
(PID.TID 0000.0001)     24 ....................................................................................................................................................................................................................................
(PID.TID 0000.0001)     23 ....................................................................................................................................................................................................................................
(PID.TID 0000.0001)     22 ....................................................................................................................................................................................................................................
(PID.TID 0000.0001)     21 ....................................................................................................................................................................................................................................
(PID.TID 0000.0001)     20 ....................................................................................................................................................................................................................................
(PID.TID 0000.0001)     19 ....................................................................................................................................................................................................................................
(PID.TID 0000.0001)     18 ....................................................................................................................................................................................................................................
(PID.TID 0000.0001)     17 ....................................................................................................................................................................................................................................
(PID.TID 0000.0001)     16 ....................................................................................................................................................................................................................................
(PID.TID 0000.0001)     15 ....................................................................................................................................................................................................................................
(PID.TID 0000.0001)     14 ....................................................................................................................................................................................................................................
(PID.TID 0000.0001)     13 ....................................................................................................................................................................................................................................
(PID.TID 0000.0001)     12 ....................................................................................................................................................................................................................................
(PID.TID 0000.0001)     11 ....................................................................................................................................................................................................................................
(PID.TID 0000.0001)     10 ....................................................................................................................................................................................................................................
(PID.TID 0000.0001)      9 ....................................................................................................................................................................................................................................
(PID.TID 0000.0001)      8 ....................................................................................................................................................................................................................................
(PID.TID 0000.0001)      7 ....................................................................................................................................................................................................................................
(PID.TID 0000.0001)      6 ....................................................................................................................................................................................................................................
(PID.TID 0000.0001)      5 ....................................................................................................................................................................................................................................
(PID.TID 0000.0001)      4 ....................................................................................................................................................................................................................................
(PID.TID 0000.0001)      3 ....................................................................................................................................................................................................................................
(PID.TID 0000.0001)      2 ....................................................................................................................................................................................................................................
(PID.TID 0000.0001)      1 ....................................................................................................................................................................................................................................
(PID.TID 0000.0001)      0 ....................................................................................................................................................................................................................................
(PID.TID 0000.0001)     -1 ....................................................................................................................................................................................................................................
(PID.TID 0000.0001)     -2 ....................................................................................................................................................................................................................................
(PID.TID 0000.0001) // =======================================================
(PID.TID 0000.0001) // END OF FIELD                                          =
(PID.TID 0000.0001) // =======================================================
(PID.TID 0000.0001) 
(PID.TID 0000.0001) // =======================================================
(PID.TID 0000.0001) // Begin MONITOR dynamic field statistics
(PID.TID 0000.0001) // =======================================================
(PID.TID 0000.0001) %MON time_tsnumber                =                    54
(PID.TID 0000.0001) %MON time_secondsf                =   1.9440000000000E+05
(PID.TID 0000.0001) %MON time_secondsi                =                194400
(PID.TID 0000.0001) %MON dynstat_eta_max              =   0.0000000000000E+00
(PID.TID 0000.0001) %MON dynstat_eta_min              =   0.0000000000000E+00
(PID.TID 0000.0001) %MON dynstat_eta_mean             =   0.0000000000000E+00
(PID.TID 0000.0001) %MON dynstat_eta_sd               =   0.0000000000000E+00
(PID.TID 0000.0001) %MON dynstat_eta_del2             =   0.0000000000000E+00
(PID.TID 0000.0001) %MON dynstat_uvel_max             =   3.8588909729170E+01
(PID.TID 0000.0001) %MON dynstat_uvel_min             =  -2.6640751857540E+01
(PID.TID 0000.0001) %MON dynstat_uvel_mean            =   1.1767582051515E+01
(PID.TID 0000.0001) %MON dynstat_uvel_sd              =   1.8925013763619E+01
(PID.TID 0000.0001) %MON dynstat_uvel_del2            =   3.3977035061841E-02
(PID.TID 0000.0001) %MON dynstat_vvel_max             =   3.8588909729170E+01
(PID.TID 0000.0001) %MON dynstat_vvel_min             =  -2.6640751857540E+01
(PID.TID 0000.0001) %MON dynstat_vvel_mean            =   1.1767582051515E+01
(PID.TID 0000.0001) %MON dynstat_vvel_sd              =   1.8925013763619E+01
(PID.TID 0000.0001) %MON dynstat_vvel_del2            =   3.3977035061841E-02
(PID.TID 0000.0001) %MON dynstat_wvel_max             =   4.8259469367879E-15
(PID.TID 0000.0001) %MON dynstat_wvel_min             =  -4.8259469367879E-15
(PID.TID 0000.0001) %MON dynstat_wvel_mean            =  -2.6408038640800E-34
(PID.TID 0000.0001) %MON dynstat_wvel_sd              =   1.3451301434752E-15
(PID.TID 0000.0001) %MON dynstat_wvel_del2            =   1.3733452540939E-15
(PID.TID 0000.0001) %MON dynstat_theta_max            =   1.9118089678749E+00
(PID.TID 0000.0001) %MON dynstat_theta_min            =   9.9995463077914E-01
(PID.TID 0000.0001) %MON dynstat_theta_mean           =   1.0066874826115E+00
(PID.TID 0000.0001) %MON dynstat_theta_sd             =   5.9888951077223E-02
(PID.TID 0000.0001) %MON dynstat_theta_del2           =   4.2293400090016E-04
(PID.TID 0000.0001) %MON dynstat_salt_max             =   1.9339490332874E+00
(PID.TID 0000.0001) %MON dynstat_salt_min             =   9.9994975407663E-01
(PID.TID 0000.0001) %MON dynstat_salt_mean            =   1.0067539774025E+00
(PID.TID 0000.0001) %MON dynstat_salt_sd              =   6.1042966677601E-02
(PID.TID 0000.0001) %MON dynstat_salt_del2            =   4.3845906437253E-04
(PID.TID 0000.0001) %MON advcfl_uvel_max              =   1.0218201555446E+00
(PID.TID 0000.0001) %MON advcfl_vvel_max              =   1.0218201555446E+00
(PID.TID 0000.0001) %MON advcfl_wvel_max              =   3.4746817944873E-16
(PID.TID 0000.0001) %MON advcfl_W_hf_max              =   0.0000000000000E+00
(PID.TID 0000.0001) %MON ke_max                       =   7.4455150023606E+02
(PID.TID 0000.0001) %MON ke_mean                      =   4.9661803126781E+02
(PID.TID 0000.0001) %MON ke_volint                    =   2.5323489810542E+22
(PID.TID 0000.0001) %MON ke_volmean                   =   4.9663214534537E+02
(PID.TID 0000.0001) // =======================================================
(PID.TID 0000.0001) // End MONITOR dynamic field statistics
(PID.TID 0000.0001) // =======================================================
(PID.TID 0000.0001) // =======================================================
(PID.TID 0000.0001) // Begin MONITOR dynamic field statistics
(PID.TID 0000.0001) // =======================================================
(PID.TID 0000.0001) %MON time_tsnumber                =                    60
(PID.TID 0000.0001) %MON time_secondsf                =   2.1600000000000E+05
(PID.TID 0000.0001) %MON time_secondsi                =                216000
(PID.TID 0000.0001) %MON dynstat_eta_max              =   0.0000000000000E+00
(PID.TID 0000.0001) %MON dynstat_eta_min              =   0.0000000000000E+00
(PID.TID 0000.0001) %MON dynstat_eta_mean             =   0.0000000000000E+00
(PID.TID 0000.0001) %MON dynstat_eta_sd               =   0.0000000000000E+00
(PID.TID 0000.0001) %MON dynstat_eta_del2             =   0.0000000000000E+00
(PID.TID 0000.0001) %MON dynstat_uvel_max             =   3.8588909729170E+01
(PID.TID 0000.0001) %MON dynstat_uvel_min             =  -2.6640751857540E+01
(PID.TID 0000.0001) %MON dynstat_uvel_mean            =   1.1767582051515E+01
(PID.TID 0000.0001) %MON dynstat_uvel_sd              =   1.8925013763619E+01
(PID.TID 0000.0001) %MON dynstat_uvel_del2            =   3.3977035061841E-02
(PID.TID 0000.0001) %MON dynstat_vvel_max             =   3.8588909729170E+01
(PID.TID 0000.0001) %MON dynstat_vvel_min             =  -2.6640751857540E+01
(PID.TID 0000.0001) %MON dynstat_vvel_mean            =   1.1767582051515E+01
(PID.TID 0000.0001) %MON dynstat_vvel_sd              =   1.8925013763619E+01
(PID.TID 0000.0001) %MON dynstat_vvel_del2            =   3.3977035061841E-02
(PID.TID 0000.0001) %MON dynstat_wvel_max             =   4.8259469367879E-15
(PID.TID 0000.0001) %MON dynstat_wvel_min             =  -4.8259469367879E-15
(PID.TID 0000.0001) %MON dynstat_wvel_mean            =  -2.6408038640800E-34
(PID.TID 0000.0001) %MON dynstat_wvel_sd              =   1.3451301434752E-15
(PID.TID 0000.0001) %MON dynstat_wvel_del2            =   1.3733452540939E-15
(PID.TID 0000.0001) %MON dynstat_theta_max            =   1.9034634436606E+00
(PID.TID 0000.0001) %MON dynstat_theta_min            =   9.9994549160341E-01
(PID.TID 0000.0001) %MON dynstat_theta_mean           =   1.0066874826115E+00
(PID.TID 0000.0001) %MON dynstat_theta_sd             =   5.9692656772250E-02
(PID.TID 0000.0001) %MON dynstat_theta_del2           =   4.1698860152065E-04
(PID.TID 0000.0001) %MON dynstat_salt_max             =   1.9302928176246E+00
(PID.TID 0000.0001) %MON dynstat_salt_min             =   9.9963825559879E-01
(PID.TID 0000.0001) %MON dynstat_salt_mean            =   1.0067540356568E+00
(PID.TID 0000.0001) %MON dynstat_salt_sd              =   6.0876540917896E-02
(PID.TID 0000.0001) %MON dynstat_salt_del2            =   4.3375601131016E-04
(PID.TID 0000.0001) %MON advcfl_uvel_max              =   1.0218201555446E+00
(PID.TID 0000.0001) %MON advcfl_vvel_max              =   1.0218201555446E+00
(PID.TID 0000.0001) %MON advcfl_wvel_max              =   3.4746817944873E-16
(PID.TID 0000.0001) %MON advcfl_W_hf_max              =   0.0000000000000E+00
(PID.TID 0000.0001) %MON ke_max                       =   7.4455150023606E+02
(PID.TID 0000.0001) %MON ke_mean                      =   4.9661803126781E+02
(PID.TID 0000.0001) %MON ke_volint                    =   2.5323489810542E+22
(PID.TID 0000.0001) %MON ke_volmean                   =   4.9663214534537E+02
(PID.TID 0000.0001) // =======================================================
(PID.TID 0000.0001) // End MONITOR dynamic field statistics
(PID.TID 0000.0001) // =======================================================
(PID.TID 0000.0001) // =======================================================
(PID.TID 0000.0001) // Begin MONITOR dynamic field statistics
(PID.TID 0000.0001) // =======================================================
(PID.TID 0000.0001) %MON time_tsnumber                =                    66
(PID.TID 0000.0001) %MON time_secondsf                =   2.3760000000000E+05
(PID.TID 0000.0001) %MON time_secondsi                =                237600
(PID.TID 0000.0001) %MON dynstat_eta_max              =   0.0000000000000E+00
(PID.TID 0000.0001) %MON dynstat_eta_min              =   0.0000000000000E+00
(PID.TID 0000.0001) %MON dynstat_eta_mean             =   0.0000000000000E+00
(PID.TID 0000.0001) %MON dynstat_eta_sd               =   0.0000000000000E+00
(PID.TID 0000.0001) %MON dynstat_eta_del2             =   0.0000000000000E+00
(PID.TID 0000.0001) %MON dynstat_uvel_max             =   3.8588909729170E+01
(PID.TID 0000.0001) %MON dynstat_uvel_min             =  -2.6640751857540E+01
(PID.TID 0000.0001) %MON dynstat_uvel_mean            =   1.1767582051515E+01
(PID.TID 0000.0001) %MON dynstat_uvel_sd              =   1.8925013763619E+01
(PID.TID 0000.0001) %MON dynstat_uvel_del2            =   3.3977035061841E-02
(PID.TID 0000.0001) %MON dynstat_vvel_max             =   3.8588909729170E+01
(PID.TID 0000.0001) %MON dynstat_vvel_min             =  -2.6640751857540E+01
(PID.TID 0000.0001) %MON dynstat_vvel_mean            =   1.1767582051515E+01
(PID.TID 0000.0001) %MON dynstat_vvel_sd              =   1.8925013763619E+01
(PID.TID 0000.0001) %MON dynstat_vvel_del2            =   3.3977035061841E-02
(PID.TID 0000.0001) %MON dynstat_wvel_max             =   4.8259469367879E-15
(PID.TID 0000.0001) %MON dynstat_wvel_min             =  -4.8259469367879E-15
(PID.TID 0000.0001) %MON dynstat_wvel_mean            =  -2.6408038640800E-34
(PID.TID 0000.0001) %MON dynstat_wvel_sd              =   1.3451301434752E-15
(PID.TID 0000.0001) %MON dynstat_wvel_del2            =   1.3733452540939E-15
(PID.TID 0000.0001) %MON dynstat_theta_max            =   1.8965463688283E+00
(PID.TID 0000.0001) %MON dynstat_theta_min            =   9.9988770902101E-01
(PID.TID 0000.0001) %MON dynstat_theta_mean           =   1.0066874826115E+00
(PID.TID 0000.0001) %MON dynstat_theta_sd             =   5.9493916970993E-02
(PID.TID 0000.0001) %MON dynstat_theta_del2           =   4.1433449546016E-04
(PID.TID 0000.0001) %MON dynstat_salt_max             =   1.9246994270991E+00
(PID.TID 0000.0001) %MON dynstat_salt_min             =   9.9966640626237E-01
(PID.TID 0000.0001) %MON dynstat_salt_mean            =   1.0067540351973E+00
(PID.TID 0000.0001) %MON dynstat_salt_sd              =   6.0703164952783E-02
(PID.TID 0000.0001) %MON dynstat_salt_del2            =   4.3147959740151E-04
(PID.TID 0000.0001) %MON advcfl_uvel_max              =   1.0218201555446E+00
(PID.TID 0000.0001) %MON advcfl_vvel_max              =   1.0218201555446E+00
(PID.TID 0000.0001) %MON advcfl_wvel_max              =   3.4746817944873E-16
(PID.TID 0000.0001) %MON advcfl_W_hf_max              =   0.0000000000000E+00
(PID.TID 0000.0001) %MON ke_max                       =   7.4455150023606E+02
(PID.TID 0000.0001) %MON ke_mean                      =   4.9661803126781E+02
(PID.TID 0000.0001) %MON ke_volint                    =   2.5323489810542E+22
(PID.TID 0000.0001) %MON ke_volmean                   =   4.9663214534537E+02
(PID.TID 0000.0001) // =======================================================
(PID.TID 0000.0001) // End MONITOR dynamic field statistics
(PID.TID 0000.0001) // =======================================================
(PID.TID 0000.0001) // =======================================================
(PID.TID 0000.0001) // Begin MONITOR dynamic field statistics
(PID.TID 0000.0001) // =======================================================
(PID.TID 0000.0001) %MON time_tsnumber                =                    72
(PID.TID 0000.0001) %MON time_secondsf                =   2.5920000000000E+05
(PID.TID 0000.0001) %MON time_secondsi                =                259200
(PID.TID 0000.0001) %MON dynstat_eta_max              =   0.0000000000000E+00
(PID.TID 0000.0001) %MON dynstat_eta_min              =   0.0000000000000E+00
(PID.TID 0000.0001) %MON dynstat_eta_mean             =   0.0000000000000E+00
(PID.TID 0000.0001) %MON dynstat_eta_sd               =   0.0000000000000E+00
(PID.TID 0000.0001) %MON dynstat_eta_del2             =   0.0000000000000E+00
(PID.TID 0000.0001) %MON dynstat_uvel_max             =   3.8588909729170E+01
(PID.TID 0000.0001) %MON dynstat_uvel_min             =  -2.6640751857540E+01
(PID.TID 0000.0001) %MON dynstat_uvel_mean            =   1.1767582051515E+01
(PID.TID 0000.0001) %MON dynstat_uvel_sd              =   1.8925013763619E+01
(PID.TID 0000.0001) %MON dynstat_uvel_del2            =   3.3977035061841E-02
(PID.TID 0000.0001) %MON dynstat_vvel_max             =   3.8588909729170E+01
(PID.TID 0000.0001) %MON dynstat_vvel_min             =  -2.6640751857540E+01
(PID.TID 0000.0001) %MON dynstat_vvel_mean            =   1.1767582051515E+01
(PID.TID 0000.0001) %MON dynstat_vvel_sd              =   1.8925013763619E+01
(PID.TID 0000.0001) %MON dynstat_vvel_del2            =   3.3977035061841E-02
(PID.TID 0000.0001) %MON dynstat_wvel_max             =   4.8259469367879E-15
(PID.TID 0000.0001) %MON dynstat_wvel_min             =  -4.8259469367879E-15
(PID.TID 0000.0001) %MON dynstat_wvel_mean            =  -2.6408038640800E-34
(PID.TID 0000.0001) %MON dynstat_wvel_sd              =   1.3451301434752E-15
(PID.TID 0000.0001) %MON dynstat_wvel_del2            =   1.3733452540939E-15
(PID.TID 0000.0001) %MON dynstat_theta_max            =   1.8902119083297E+00
(PID.TID 0000.0001) %MON dynstat_theta_min            =   9.9985861098769E-01
(PID.TID 0000.0001) %MON dynstat_theta_mean           =   1.0066874826115E+00
(PID.TID 0000.0001) %MON dynstat_theta_sd             =   5.9300535545370E-02
(PID.TID 0000.0001) %MON dynstat_theta_del2           =   4.1274010468675E-04
(PID.TID 0000.0001) %MON dynstat_salt_max             =   1.9182100308673E+00
(PID.TID 0000.0001) %MON dynstat_salt_min             =   9.9971234824289E-01
(PID.TID 0000.0001) %MON dynstat_salt_mean            =   1.0067540351946E+00
(PID.TID 0000.0001) %MON dynstat_salt_sd              =   6.0532437712584E-02
(PID.TID 0000.0001) %MON dynstat_salt_del2            =   4.3013228758760E-04
(PID.TID 0000.0001) %MON advcfl_uvel_max              =   1.0218201555446E+00
(PID.TID 0000.0001) %MON advcfl_vvel_max              =   1.0218201555446E+00
(PID.TID 0000.0001) %MON advcfl_wvel_max              =   3.4746817944873E-16
(PID.TID 0000.0001) %MON advcfl_W_hf_max              =   0.0000000000000E+00
(PID.TID 0000.0001) %MON ke_max                       =   7.4455150023606E+02
(PID.TID 0000.0001) %MON ke_mean                      =   4.9661803126781E+02
(PID.TID 0000.0001) %MON ke_volint                    =   2.5323489810542E+22
(PID.TID 0000.0001) %MON ke_volmean                   =   4.9663214534537E+02
(PID.TID 0000.0001) // =======================================================
(PID.TID 0000.0001) // End MONITOR dynamic field statistics
(PID.TID 0000.0001) // =======================================================
(PID.TID 0000.0001) // =======================================================
(PID.TID 0000.0001) // Field Current uVel   at iteration         72
(PID.TID 0000.0001) // CMIN =         -2.664075185753955E+01
(PID.TID 0000.0001) // CMAX =          3.858890972916976E+01
(PID.TID 0000.0001) // CINT =          2.415913392100345E+00
(PID.TID 0000.0001) // SYMBOLS (CMIN->CMAX): -abcdefghijklmnopqrstuvwxyz+
(PID.TID 0000.0001) //                  0.0: .
(PID.TID 0000.0001) // RANGE I (Lo:Hi:Step):(   1: 192:   1)
(PID.TID 0000.0001) // RANGE J (Lo:Hi:Step):(  32:   1:  -1)
(PID.TID 0000.0001) // RANGE K (Lo:Hi:Step):(   1:   1:   1)
(PID.TID 0000.0001) // =======================================================
(PID.TID 0000.0001) K =   1
(PID.TID 0000.0001)                I=10      I=20      I=30      I=40      I=50      I=60      I=70      I=80      I=90      I=100     I=110     I=120     I=130     I=140     I=150     I=160     I=170     I=180     I=190
(PID.TID 0000.0001) |--J--|123456789|123456789|123456789|123456789|123456789|123456789|123456789|123456789|123456789|123456789|123456789|123456789|123456789|123456789|123456789|123456789|123456789|123456789|123456789|12
(PID.TID 0000.0001)     32 xwwwwwwwwwwwwwwwwwwwwwwwwwwwwwwwxwwwwwwwwwwwwwwwwwwwwwwwwwwwwwwwea-----------------------------aeijjkkkkkkkkkkkk.kkkkkkkkkkkkllmeijjkkkkkkkkkkkk.kkkkkkkkkkkkllmquvvvvvvvvvvvvvvvvvvvvvvvvvvvvvu
(PID.TID 0000.0001)     31 xxxxwwwwwwwwwwwwwwwwwwwwwwwwwxxxxxxxwwwwwwwwwwwwwwwwwwwwwwwwwxxxecbaaaaaaaaaaaaaaaaaaaaaaaaaaabcegiijjjjkkkkkkkk.kkkkkkkkllllmmoegiijjjjkkkkkkkk.kkkkkkkkllllmmoqstuuuuuuuuuuuuuuuuuuuuuuuuuuuts
(PID.TID 0000.0001)     30 yxxxxxxxxxxxxxxxxxxxxxxxxxxxxxxxyxxxxxxxxxxxxxxxxxxxxxxxxxxxxxxxedcbbbaaaaaaaaaaaaaaaaaaaaabbbcdeghiijjjjjkkkkkk.kkkkkklllllmmnpeghiijjjjjkkkkkk.kkkkkklllllmmnpqrstttuuuuuuuuuuuuuuuuuuuuutttsr
(PID.TID 0000.0001)     29 yyyyxxxxxxxxxxxxxxxxxxxxxxxxxyyyyyyyxxxxxxxxxxxxxxxxxxxxxxxxxyyyeddccbbbbbbbbbbbbbbbbbbbbbbbccddefghiijjjjjkkkkk.kkkkklllllmmnopefghiijjjjjkkkkk.kkkkklllllmmnopqrssstttttttttttttttttttttttsssr
(PID.TID 0000.0001)     28 yyyyyyyyyyyxxxxxxxxxxxyyyyyyyyyyyyyyyyyyyyyxxxxxxxxxxxyyyyyyyyyyfeddccccccbbbbbbbbbbbbbccccccddeffghiiijjjjjkkkk.kkkklllllmmnnopffghiiijjjjjkkkk.kkkklllllmmnnoppqrrssssstttttttttttttttsssssrrq
(PID.TID 0000.0001)     27 yyyyyyyyyyyyyyyyyyyyyyyyyyyyyyyyyyyyyyyyyyyyyyyyyyyyyyyyyyyyyyyyfeeddddcccccccccccccccccccddddeefgghhiijjjjjkkkk.kkkklllllmmnnoofgghhiijjjjjkkkk.kkkklllllmmnnoopqqrrrsssssssssssssssssssssrrrqq
(PID.TID 0000.0001)     26 zzzzyyyyyyyyyyyyyyyyyyyyyyyyyzzzzzzzyyyyyyyyyyyyyyyyyyyyyyyyyzzzffeeedddddddddddddddddddddddeeeffgghhiijjjjjkkkk.kkklllllmmmnnoofgghhiijjjjjkkkk.kkklllllmmmnnooppqqqrrrrrrrrrrrrrrrrrrrrrrrqqqp
(PID.TID 0000.0001)     25 zzzzzzzzzzzzzzzzzzzzzzzzzzzzzzzzzzzzzzzzzzzzzzzzzzzzzzzzzzzzzzzzgfffeeeeeeeedddddddddeeeeeeeefffgghhiiijjjjjkkkk.kkklllllmmmnnnogghhiiijjjjjkkkk.kkklllllmmmnnnoopppqqqqqqrrrrrrrrrrrrrqqqqqqppp
(PID.TID 0000.0001)     24 zzzzzzzzzzzzzzzzzzzzzzzzzzzzzzzzzzzzzzzzzzzzzzzzzzzzzzzzzzzzzzzzgggfffffeeeeeeeeeeeeeeeeefffffggghhhiiijjjjjkkkk.kkkllllllmmmnnnghhhiiijjjjjkkkk.kkkllllllmmmnnnoopppppqqqqqqqqqqqqqqqqqqqpppppo
(PID.TID 0000.0001)     23 zzzzzzzzzzzzzzzzzzzzzzzzzzzzzzzzzzzzzzzzzzzzzzzzzzzzzzzzzzzzzzzzhggggfffffffffffffffffffffffgggghhhiiiijjjjjkkkk.kkkklllllmmmmnnhhhiiiijjjjjkkkk.kkkklllllmmmmnnnoooopppppppppppppppppppppppoooo
(PID.TID 0000.0001)     22 zzzzzzzzzzzzzzzzzzzzzzzzzzzzzzzzzzzzzzzzzzzzzzzzzzzzzzzzzzzzzzzzhhhhggggggggggggggggggggggggghhhhhiiiijjjjjjkkkk.kkkkllllllmmmmnhhiiiijjjjjjkkkk.kkkkllllllmmmmnnnnooooooooooooooooooooooooooonn
(PID.TID 0000.0001)     21 ++++++++++++++++++++++++++++++++++++++++++++++++++++++++++++++++ihhhhhhhhhhggggggggggghhhhhhhhhhiiiiijjjjjjkkkkk.kkkkkllllllmmmmiiiiijjjjjjkkkkk.kkkkkllllllmmmmmnnnnnnnnnooooooooooooonnnnnnnnn
(PID.TID 0000.0001)     20 ++++++++++++++++++++++++++++++++++++++++++++++++++++++++++++++++iiiiiihhhhhhhhhhhhhhhhhhhhhiiiiiiiijjjjjjjkkkkkk.kkkkkklllllllmmiiijjjjjjjkkkkkk.kkkkkklllllllmmmmmmmmnnnnnnnnnnnnnnnnnnnnnmmmmm
(PID.TID 0000.0001)     19 ++++++++++++++++++++++++++++++++++++++++++++++++++++++++++++++++jjiiiiiiiiiiiiiiiiiiiiiiiiiiiiijjjjjjjjjkkkkkkkk.kkkkkkklllllllljjjjjjjjkkkkkkkk.kkkkkkkllllllllllmmmmmmmmmmmmmmmmmmmmmmmmmmmmml
(PID.TID 0000.0001)     18 ++++++++++++++++++++++++++++++++++++++++++++++++++++++++++++++++jjjjjjjjjjjjjjjjjjjjjjjjjjjjjjjjjjjjjkkkkkkkkkkk.kkkkkkkkkkklllljjjjjkkkkkkkkkkk.kkkkkkkkkkkllllllllllllllllllllllllllllllllllll
(PID.TID 0000.0001)     17 ++++++++++++++++++++++++++++++++++++++++++++++++++++++++++++++++kkkkkkkkkkkkkkkkkkkkkkkkkkkkkkkkkkkkkkkkkkkkkkkk.kkkkkkkkkkkkkkkkkkkkkkkkkkkkkkk.kkkkkkkkkkkkkkkkkkkkkkkkkkkkkkkkkkkkkkkkkkkkkkk
(PID.TID 0000.0001)     16 ++++++++++++++++++++++++++++++++++++++++++++++++++++++++++++++++kkkkkkkkkkkkkkkkkkkkkkkkkkkkkkkkkkkkkkkkkkkkkkkk.kkkkkkkkkkkkkkkkkkkkkkkkkkkkkkk.kkkkkkkkkkkkkkkkkkkkkkkkkkkkkkkkkkkkkkkkkkkkkkk
(PID.TID 0000.0001)     15 ++++++++++++++++++++++++++++++++++++++++++++++++++++++++++++++++lllllllllllllllllllllllllllllllllllllkkkkkkkkkkk.kkkkkkkkkkkjjjjlllllkkkkkkkkkkk.kkkkkkkkkkkjjjjjjjjjjjjjjjjjjjjjjjjjjjjjjjjjjjj
(PID.TID 0000.0001)     14 ++++++++++++++++++++++++++++++++++++++++++++++++++++++++++++++++llmmmmmmmmmmmmmmmmmmmmmmmmmmmmmllllllllllkkkkkkk.kkkkkkkkjjjjjjjlllllllllkkkkkkk.kkkkkkkkjjjjjjjjjiiiiiiiiiiiiiiiiiiiiiiiiiiiiij
(PID.TID 0000.0001)     13 ++++++++++++++++++++++++++++++++++++++++++++++++++++++++++++++++mmmmmmnnnnnnnnnnnnnnnnnnnnnmmmmmmmmlllllllkkkkkk.kkkkkkjjjjjjjiimmmlllllllkkkkkk.kkkkkkjjjjjjjiiiiiiiihhhhhhhhhhhhhhhhhhhhhiiiii
(PID.TID 0000.0001)     12 ++++++++++++++++++++++++++++++++++++++++++++++++++++++++++++++++mnnnnnnnnnooooooooooooonnnnnnnnnmmmmmllllllkkkkk.kkkkkjjjjjjiiiimmmmmllllllkkkkk.kkkkkjjjjjjiiiiihhhhhhhhhhggggggggggghhhhhhhhhh
(PID.TID 0000.0001)     11 zzzzzzzzzzzzzzzzzzzzzzzzzzzzzzzzzzzzzzzzzzzzzzzzzzzzzzzzzzzzzzzznnnooooooooooooooooooooooooooonnnnmmmmllllllkkkk.kkkkjjjjjjiiiihnnmmmmllllllkkkk.kkkkjjjjjjiiiihhhhhggggggggggggggggggggggggghhh
(PID.TID 0000.0001)     10 zzzzzzzzzzzzzzzzzzzzzzzzzzzzzzzzzzzzzzzzzzzzzzzzzzzzzzzzzzzzzzzznoooopppppppppppppppppppppppoooonnnmmmmlllllkkkk.kkkkjjjjjiiiihhnnnmmmmlllllkkkk.kkkkjjjjjiiiihhhggggfffffffffffffffffffffffgggg
(PID.TID 0000.0001)      9 zzzzzzzzzzzzzzzzzzzzzzzzzzzzzzzzzzzzzzzzzzzzzzzzzzzzzzzzzzzzzzzzoopppppqqqqqqqqqqqqqqqqqqqpppppoonnnmmmllllllkkk.kkkkjjjjjiiihhhonnnmmmllllllkkk.kkkkjjjjjiiihhhgggfffffeeeeeeeeeeeeeeeeefffffgg
(PID.TID 0000.0001)      8 zzzzzzzzzzzzzzzzzzzzzzzzzzzzzzzzzzzzzzzzzzzzzzzzzzzzzzzzzzzzzzzzopppqqqqqqrrrrrrrrrrrrrqqqqqqpppoonnnmmmlllllkkk.kkkkjjjjjiiihhgoonnnmmmlllllkkk.kkkkjjjjjiiihhggfffeeeeeeeedddddddddeeeeeeeefff
(PID.TID 0000.0001)      7 zzzzyyyyyyyyyyyyyyyyyyyyyyyyyzzzzzzzyyyyyyyyyyyyyyyyyyyyyyyyyzzzppqqqrrrrrrrrrrrrrrrrrrrrrrrqqqppoonnmmmlllllkkk.kkkkjjjjjiihhggpoonnmmmlllllkkk.kkkkjjjjjiihhggffeeedddddddddddddddddddddddeeef
(PID.TID 0000.0001)      6 yyyyyyyyyyyyyyyyyyyyyyyyyyyyyyyyyyyyyyyyyyyyyyyyyyyyyyyyyyyyyyyypqqrrrsssssssssssssssssssssrrrqqpoonnmmlllllkkkk.kkkkjjjjjiihhggpoonnmmlllllkkkk.kkkkjjjjjiihhggfeeddddcccccccccccccccccccddddee
(PID.TID 0000.0001)      5 yyyyyyyyyyyxxxxxxxxxxxyyyyyyyyyyyyyyyyyyyyyxxxxxxxxxxxyyyyyyyyyypqrrssssstttttttttttttttsssssrrqpponnmmlllllkkkk.kkkkjjjjjiiihgfpponnmmlllllkkkk.kkkkjjjjjiiihgffeddccccccbbbbbbbbbbbbbccccccdde
(PID.TID 0000.0001)      4 yyyyxxxxxxxxxxxxxxxxxxxxxxxxxyyyyyyyxxxxxxxxxxxxxxxxxxxxxxxxxyyyqrssstttttttttttttttttttttttsssrqponmmlllllkkkkk.kkkkkjjjjjiihgfqponmmlllllkkkkk.kkkkkjjjjjiihgfeddccbbbbbbbbbbbbbbbbbbbbbbbccdd
(PID.TID 0000.0001)      3 yxxxxxxxxxxxxxxxxxxxxxxxxxxxxxxxyxxxxxxxxxxxxxxxxxxxxxxxxxxxxxxxqrstttuuuuuuuuuuuuuuuuuuuuutttsrqpnmmlllllkkkkkk.kkkkkkjjjjjiihgqpnmmlllllkkkkkk.kkkkkkjjjjjiihgedcbbbaaaaaaaaaaaaaaaaaaaaabbbcd
(PID.TID 0000.0001)      2 xxxxwwwwwwwwwwwwwwwwwwwwwwwwwxxxxxxxwwwwwwwwwwwwwwwwwwwwwwwwwxxxqstuuuuuuuuuuuuuuuuuuuuuuuuuuutsqommllllkkkkkkkk.kkkkkkkkjjjjiigqommllllkkkkkkkk.kkkkkkkkjjjjiigecbaaaaaaaaaaaaaaaaaaaaaaaaaaabc
(PID.TID 0000.0001)      1 xwwwwwwwwwwwwwwwwwwwwwwwwwwwwwwwxwwwwwwwwwwwwwwwwwwwwwwwwwwwwwwwquvvvvvvvvvvvvvvvvvvvvvvvvvvvvvuqmllkkkkkkkkkkkk.kkkkkkkkkkkkjjiqmllkkkkkkkkkkkk.kkkkkkkkkkkkjjiea-----------------------------a
(PID.TID 0000.0001) // =======================================================
(PID.TID 0000.0001) // END OF FIELD                                          =
(PID.TID 0000.0001) // =======================================================
(PID.TID 0000.0001) 
(PID.TID 0000.0001) // =======================================================
(PID.TID 0000.0001) // Field Current vVel   at iteration         72
(PID.TID 0000.0001) // CMIN =         -2.664075185753955E+01
(PID.TID 0000.0001) // CMAX =          3.858890972916976E+01
(PID.TID 0000.0001) // CINT =          2.415913392100345E+00
(PID.TID 0000.0001) // SYMBOLS (CMIN->CMAX): -abcdefghijklmnopqrstuvwxyz+
(PID.TID 0000.0001) //                  0.0: .
(PID.TID 0000.0001) // RANGE I (Lo:Hi:Step):(   1: 192:   1)
(PID.TID 0000.0001) // RANGE J (Lo:Hi:Step):(  32:   1:  -1)
(PID.TID 0000.0001) // RANGE K (Lo:Hi:Step):(   1:   1:   1)
(PID.TID 0000.0001) // =======================================================
(PID.TID 0000.0001) K =   1
(PID.TID 0000.0001)                I=10      I=20      I=30      I=40      I=50      I=60      I=70      I=80      I=90      I=100     I=110     I=120     I=130     I=140     I=150     I=160     I=170     I=180     I=190
(PID.TID 0000.0001) |--J--|123456789|123456789|123456789|123456789|123456789|123456789|123456789|123456789|123456789|123456789|123456789|123456789|123456789|123456789|123456789|123456789|123456789|123456789|123456789|12
(PID.TID 0000.0001)     32 iggffggghhhiijjkkllmmnnnooopppomiggffggghhhiijjkkllmmnnnooopppomacddeeffgghhijjkkllmnnooppqqrrsuwxxyyyzzzzz++++++++++zzzzzyyyxxwwxxyyyzzzzz++++++++++zzzzzyyyxxwusrrqqppoonnmllkkjjihhggffeeddca
(PID.TID 0000.0001)     31 jihgggghhhiiijjkkllmmmnnnoooonmljihgggghhhiiijjkkllmmmnnnoooonml-bcddeefgghhiijkklmmnnoppqqrsstvwxxyyyzzzzz++++++++++zzzzzyyyxxwwxxyyyzzzzz++++++++++zzzzzyyyxxwvtssrqqpponnmmlkkjiihhggfeeddcb-
(PID.TID 0000.0001)     30 jiihhhhhhiiijjjkklllmmmnnnnnnmmljiihhhhhhiiijjjkklllmmmnnnnnnmml-abcddeffghhiijkklmmnooppqrrstuvwxxyyyzzzzz++++++++++zzzzzyyyxxwwxxyyyzzzzz++++++++++zzzzzyyyxxwvutsrrqppoonmmlkkjiihhgffeddcba-
(PID.TID 0000.0001)     29 kjiiihhiiiiijjjkklllmmmmnnnnmmlkkjiiihhiiiiijjjkklllmmmmnnnnmmlk-abccdeefgghiijkklmmnoopqqrsstuvwwxxyyyzzzz++++++++++zzzzyyyxxwwwwxxyyyzzzz++++++++++zzzzyyyxxwwvutssrqqpoonmmlkkjiihggfeedccba-
(PID.TID 0000.0001)     28 kjjiiiiiiiijjjkkkklllmmmmmmmmllkkjjiiiiiiiijjjkkkklllmmmmmmmmllk-abbcddeffghiijkklmmnoppqrrsttuvwwxxyyyzzzz++++++++++zzzzyyyxxwwwwxxyyyzzzz++++++++++zzzzyyyxxwwvuttsrrqpponmmlkkjiihgffeddcbba-
(PID.TID 0000.0001)     27 kjjjiiiiiijjjjkkkkllllmmmmmmlllkkjjjiiiiiijjjjkkkkllllmmmmmmlllk-aabcddeffghhijkklmnnoppqrsstuuvwwxxyyyzzzz++++++++++zzzzyyyxxwwwwxxyyyzzzz++++++++++zzzzyyyxxwwvuutssrqpponnmlkkjihhgffeddcbaa-
(PID.TID 0000.0001)     26 kjjjjjjjjjjjjjkkkkllllllmmlllllkkjjjjjjjjjjjjjkkkkllllllmmlllllk-aabccdeffghhijkklmnnopqqrsstuuvwwxxyyyzzzz++++++++++zzzzyyyxxwwwwxxyyyzzzz++++++++++zzzzyyyxxwwvuutssrqqponnmlkkjihhgffedccbaa-
(PID.TID 0000.0001)     25 kkjjjjjjjjjjjkkkkkllllllllllllkkkkjjjjjjjjjjjkkkkkllllllllllllkk-aabccdeefghhijkklmnnopqqrsstuuvwwxxyyyzzzz++++++++++zzzzyyyxxwwwwxxyyyzzzz++++++++++zzzzyyyxxwwvuutssrqqponnmlkkjihhgfeedccbaa-
(PID.TID 0000.0001)     24 kkjjjjjjjjjjjkkkkkklllllllllllkkkkjjjjjjjjjjjkkkkkklllllllllllkk-aabccdeefghhijkklmnnopqqrsttuuvwwxxyyyzzzz++++++++++zzzzyyyxxwwwwxxyyyzzzz++++++++++zzzzyyyxxwwvuuttsrqqponnmlkkjihhgfeedccbaa-
(PID.TID 0000.0001)     23 kkkjjjjjjjjjkkkkkkkklllllllllkkkkkkjjjjjjjjjkkkkkkkklllllllllkkk-aabbcdeefghhijkklmnoopqrrsttuuvwwxxyyyzzzz++++++++++zzzzyyyxxwwwwxxyyyzzzz++++++++++zzzzyyyxxwwvuuttsrrqpoonmlkkjihhgfeedcbbaa-
(PID.TID 0000.0001)     22 kkkkjjjjjjjkkkkkkkkkklllllllkkkkkkkkjjjjjjjkkkkkkkkkklllllllkkkk-aabbcdeefgghijkklmnoopqrrsttuuvwwxxxyyzzzz++++++++++zzzzyyxxxwwwwxxxyyzzzz++++++++++zzzzyyxxxwwvuuttsrrqpoonmlkkjihggfeedcbbaa-
(PID.TID 0000.0001)     21 kkkkkkkkkkkkkkkkkkkkkkklllkkkkkkkkkkkkkkkkkkkkkkkkkkkkklllkkkkkk-aabbcddefgghijkklmnoopqrrsttuuvwwxxxyyzzzz++++++++++zzzzyyxxxwwwwxxxyyzzzz++++++++++zzzzyyxxxwwvuuttsrrqpoonmlkkjihggfeddcbbaa-
(PID.TID 0000.0001)     20 kkkkkkkkkkkkkkkkkkkkkkkkkkkkkkkkkkkkkkkkkkkkkkkkkkkkkkkkkkkkkkkk-aabbcddefgghijkklmnoopqrrsttuuvwwxxxyyzzzz++++++++++zzzzyyxxxwwwwxxxyyzzzz++++++++++zzzzyyxxxwwvuuttsrrqpoonmlkkjihggfeddcbbaa-
(PID.TID 0000.0001)     19 kkkkkkkkkkkkkkkkkkkkkkkkkkkkkkkkkkkkkkkkkkkkkkkkkkkkkkkkkkkkkkkk-aabbcddefgghijkklmnoopqrrsttuuvwwxxxyyzzzz++++++++++zzzzyyxxxwwwwxxxyyzzzz++++++++++zzzzyyxxxwwvuuttsrrqpoonmlkkjihggfeddcbbaa-
(PID.TID 0000.0001)     18 kkkkkkkkkkkkkkkkkkkkkkkkkkkkkkkkkkkkkkkkkkkkkkkkkkkkkkkkkkkkkkkk-aabbcddefgghijkklmnoopqrrsttuuvwwxxxyyzzzz++++++++++zzzzyyxxxwwwwxxxyyzzzz++++++++++zzzzyyxxxwwvuuttsrrqpoonmlkkjihggfeddcbbaa-
(PID.TID 0000.0001)     17 ................................................................-aabbcddefgghijkklmnoopqrrsttuuvwwxxxyyzzzz++++++++++zzzzyyxxxwwwwxxxyyzzzz++++++++++zzzzyyxxxwwvuuttsrrqpoonmlkkjihggfeddcbbaa-
(PID.TID 0000.0001)     16 kkkkkkkkkkkkkkkkkkkkkkkkkkkkkkkkkkkkkkkkkkkkkkkkkkkkkkkkkkkkkkkk-aabbcddefgghijkklmnoopqrrsttuuvwwxxxyyzzzz++++++++++zzzzyyxxxwwwwxxxyyzzzz++++++++++zzzzyyxxxwwvuuttsrrqpoonmlkkjihggfeddcbbaa-
(PID.TID 0000.0001)     15 kkkkkkkkkkkkkkkkkkkkkkkkkkkkkkkkkkkkkkkkkkkkkkkkkkkkkkkkkkkkkkkk-aabbcddefgghijkklmnoopqrrsttuuvwwxxxyyzzzz++++++++++zzzzyyxxxwwwwxxxyyzzzz++++++++++zzzzyyxxxwwvuuttsrrqpoonmlkkjihggfeddcbbaa-
(PID.TID 0000.0001)     14 kkkkkkkkkkkkkkkkkkkkkkkkkkkkkkkkkkkkkkkkkkkkkkkkkkkkkkkkkkkkkkkk-aabbcddefgghijkklmnoopqrrsttuuvwwxxxyyzzzz++++++++++zzzzyyxxxwwwwxxxyyzzzz++++++++++zzzzyyxxxwwvuuttsrrqpoonmlkkjihggfeddcbbaa-
(PID.TID 0000.0001)     13 kkkkkklllkkkkkkkkkkkkkkkkkkkkkkkkkkkkklllkkkkkkkkkkkkkkkkkkkkkkk-aabbcddefgghijkklmnoopqrrsttuuvwwxxxyyzzzz++++++++++zzzzyyxxxwwwwxxxyyzzzz++++++++++zzzzyyxxxwwvuuttsrrqpoonmlkkjihggfeddcbbaa-
(PID.TID 0000.0001)     12 kkkklllllllkkkkkkkkkkjjjjjjjkkkkkkkklllllllkkkkkkkkkkjjjjjjjkkkk-aabbcdeefgghijkklmnoopqrrsttuuvwwxxxyyzzzz++++++++++zzzzyyxxxwwwwxxxyyzzzz++++++++++zzzzyyxxxwwvuuttsrrqpoonmlkkjihggfeedcbbaa-
(PID.TID 0000.0001)     11 kkklllllllllkkkkkkkkjjjjjjjjjkkkkkklllllllllkkkkkkkkjjjjjjjjjkkk-aabbcdeefghhijkklmnoopqrrsttuuvwwxxyyyzzzz++++++++++zzzzyyyxxwwwwxxyyyzzzz++++++++++zzzzyyyxxwwvuuttsrrqpoonmlkkjihhgfeedcbbaa-
(PID.TID 0000.0001)     10 kklllllllllllkkkkkkjjjjjjjjjjjkkkklllllllllllkkkkkkjjjjjjjjjjjkk-aabccdeefghhijkklmnnopqqrsttuuvwwxxyyyzzzz++++++++++zzzzyyyxxwwwwxxyyyzzzz++++++++++zzzzyyyxxwwvuuttsrqqponnmlkkjihhgfeedccbaa-
(PID.TID 0000.0001)      9 kkllllllllllllkkkkkjjjjjjjjjjjkkkkllllllllllllkkkkkjjjjjjjjjjjkk-aabccdeefghhijkklmnnopqqrsstuuvwwxxyyyzzzz++++++++++zzzzyyyxxwwwwxxyyyzzzz++++++++++zzzzyyyxxwwvuutssrqqponnmlkkjihhgfeedccbaa-
(PID.TID 0000.0001)      8 klllllmmllllllkkkkjjjjjjjjjjjjjkklllllmmllllllkkkkjjjjjjjjjjjjjk-aabccdeffghhijkklmnnopqqrsstuuvwwxxyyyzzzz++++++++++zzzzyyyxxwwwwxxyyyzzzz++++++++++zzzzyyyxxwwvuutssrqqponnmlkkjihhgffedccbaa-
(PID.TID 0000.0001)      7 klllmmmmmmllllkkkkjjjjiiiiiijjjkklllmmmmmmllllkkkkjjjjiiiiiijjjk-aabcddeffghhijkklmnnoppqrsstuuvwwxxyyyzzzz++++++++++zzzzyyyxxwwwwxxyyyzzzz++++++++++zzzzyyyxxwwvuutssrqpponnmlkkjihhgffeddcbaa-
(PID.TID 0000.0001)      6 kllmmmmmmmmlllkkkkjjjiiiiiiiijjkkllmmmmmmmmlllkkkkjjjiiiiiiiijjk-abbcddeffghiijkklmmnoppqrrsttuvwwxxyyyzzzz++++++++++zzzzyyyxxwwwwxxyyyzzzz++++++++++zzzzyyyxxwwvuttsrrqpponmmlkkjiihgffeddcbba-
(PID.TID 0000.0001)      5 klmmnnnnmmmmlllkkjjjiiiiihhiiijkklmmnnnnmmmmlllkkjjjiiiiihhiiijk-abccdeefgghiijkklmmnoopqqrsstuvwwxxyyyzzzz++++++++++zzzzyyyxxwwwwxxyyyzzzz++++++++++zzzzyyyxxwwvutssrqqpoonmmlkkjiihggfeedccba-
(PID.TID 0000.0001)      4 lmmnnnnnnmmmlllkkjjjiiihhhhhhiijlmmnnnnnnmmmlllkkjjjiiihhhhhhiij-abcddeffghhiijkklmmnooppqrrstuvwxxyyyzzzzz++++++++++zzzzzyyyxxwwxxyyyzzzzz++++++++++zzzzzyyyxxwvutsrrqppoonmmlkkjiihhgffeddcba-
(PID.TID 0000.0001)      3 lmnoooonnnmmmllkkjjiiihhhgggghijlmnoooonnnmmmllkkjjiiihhhgggghij-bcddeefgghhiijkklmmnnoppqqrsstvwxxyyyzzzzz++++++++++zzzzzyyyxxwwxxyyyzzzzz++++++++++zzzzzyyyxxwvtssrqqpponnmmlkkjiihhggfeeddcb-
(PID.TID 0000.0001)      2 mopppooonnnmmllkkjjiihhhgggffggimopppooonnnmmllkkjjiihhhgggffggiacddeeffgghhijjkkllmnnooppqqrrsuwxxyyyzzzzz++++++++++zzzzzyyyxxwwxxyyyzzzzz++++++++++zzzzzyyyxxwusrrqqppoonnmllkkjjihhggffeeddca
(PID.TID 0000.0001)      1 qqqqpppoonnmmllkkjjiihhggfffeeeeqqqqpppoonnmmllkkjjiihhggfffeeeeeeeefffgghhiijjkkllmmnnoopppqqqqxxyyyyzzzzz++++++++++zzzzzyyyyxxxxyyyyzzzzz++++++++++zzzzzyyyyxxqqqqpppoonnmmllkkjjiihhggfffeeee
(PID.TID 0000.0001) // =======================================================
(PID.TID 0000.0001) // END OF FIELD                                          =
(PID.TID 0000.0001) // =======================================================
(PID.TID 0000.0001) 
(PID.TID 0000.0001) // =======================================================
(PID.TID 0000.0001) // Field Current theta  at iteration         72
(PID.TID 0000.0001) // CMIN =          9.998586109876922E-01
(PID.TID 0000.0001) // CMAX =          1.890211908329738E+00
(PID.TID 0000.0001) // CINT =          3.297604804970539E-02
(PID.TID 0000.0001) // SYMBOLS (CMIN->CMAX): -abcdefghijklmnopqrstuvwxyz+
(PID.TID 0000.0001) //                  0.0: .
(PID.TID 0000.0001) // RANGE I (Lo:Hi:Step):(   1: 192:   1)
(PID.TID 0000.0001) // RANGE J (Lo:Hi:Step):(  32:   1:  -1)
(PID.TID 0000.0001) // RANGE K (Lo:Hi:Step):(   1:   1:   1)
(PID.TID 0000.0001) // =======================================================
(PID.TID 0000.0001) K =   1
(PID.TID 0000.0001)                I=10      I=20      I=30      I=40      I=50      I=60      I=70      I=80      I=90      I=100     I=110     I=120     I=130     I=140     I=150     I=160     I=170     I=180     I=190
(PID.TID 0000.0001) |--J--|123456789|123456789|123456789|123456789|123456789|123456789|123456789|123456789|123456789|123456789|123456789|123456789|123456789|123456789|123456789|123456789|123456789|123456789|123456789|12
(PID.TID 0000.0001)     32 ------------------------------------------------------------------------------------------------------------------------------------------------------------------------------------------------
(PID.TID 0000.0001)     31 ------------------------------------------------------------------------------------------------------------------------------------------------------------------------------------------------
(PID.TID 0000.0001)     30 ------------------------------------------------------------------------------------------------------------------------------------------------------------------------------------------------
(PID.TID 0000.0001)     29 ------------------------------------------------------------------------------------------------------------------------------------------------------------------------------------------------
(PID.TID 0000.0001)     28 ------------------------------------------------------------------------------------------------------------------------------------------------------------------------------------------------
(PID.TID 0000.0001)     27 ------------------------------------------------------------------------------------------------------------------------------------------------------------------------------------------------
(PID.TID 0000.0001)     26 ------------------------------------------------------------------------------------------------------------------------------------------------------------------------------------------------
(PID.TID 0000.0001)     25 ------------------------------------------------------------------------------------------------------------------------------------------------------------------------------------------------
(PID.TID 0000.0001)     24 ------------------------------------------------------------------------------------------------------------------------------------------------------------------------------------------------
(PID.TID 0000.0001)     23 ------------------------------------------------------------------------------------------------------------------------------------------------------------------------------------------------
(PID.TID 0000.0001)     22 --------------------------------------------------------------------------------------------------------------aaaa------------------------------------------------------------------------------
(PID.TID 0000.0001)     21 ------------------------------------------------------------------------------------------------------------abdeedba----------------------------------------------------------------------------
(PID.TID 0000.0001)     20 -----------------------------------------------------------------------------------------------------------acfjkkjfca---------------------------------------------------------------------------
(PID.TID 0000.0001)     19 -----------------------------------------------------------------------------------------------------------bfkprrpkfb---------------------------------------------------------------------------
(PID.TID 0000.0001)     18 -----------------------------------------------------------------------------------------------------------chouxxuohc---------------------------------------------------------------------------
(PID.TID 0000.0001)     17 -----------------------------------------------------------------------------------------------------------ciqw++wqic---------------------------------------------------------------------------
(PID.TID 0000.0001)     16 -----------------------------------------------------------------------------------------------------------ciqw++wqic---------------------------------------------------------------------------
(PID.TID 0000.0001)     15 -----------------------------------------------------------------------------------------------------------chouxxuohc---------------------------------------------------------------------------
(PID.TID 0000.0001)     14 -----------------------------------------------------------------------------------------------------------bfkprrpkfb---------------------------------------------------------------------------
(PID.TID 0000.0001)     13 -----------------------------------------------------------------------------------------------------------acfjlljfca---------------------------------------------------------------------------
(PID.TID 0000.0001)     12 ------------------------------------------------------------------------------------------------------------abdeedba----------------------------------------------------------------------------
(PID.TID 0000.0001)     11 --------------------------------------------------------------------------------------------------------------aaaa------------------------------------------------------------------------------
(PID.TID 0000.0001)     10 ------------------------------------------------------------------------------------------------------------------------------------------------------------------------------------------------
(PID.TID 0000.0001)      9 ------------------------------------------------------------------------------------------------------------------------------------------------------------------------------------------------
(PID.TID 0000.0001)      8 ------------------------------------------------------------------------------------------------------------------------------------------------------------------------------------------------
(PID.TID 0000.0001)      7 ------------------------------------------------------------------------------------------------------------------------------------------------------------------------------------------------
(PID.TID 0000.0001)      6 ------------------------------------------------------------------------------------------------------------------------------------------------------------------------------------------------
(PID.TID 0000.0001)      5 ------------------------------------------------------------------------------------------------------------------------------------------------------------------------------------------------
(PID.TID 0000.0001)      4 ------------------------------------------------------------------------------------------------------------------------------------------------------------------------------------------------
(PID.TID 0000.0001)      3 ------------------------------------------------------------------------------------------------------------------------------------------------------------------------------------------------
(PID.TID 0000.0001)      2 ------------------------------------------------------------------------------------------------------------------------------------------------------------------------------------------------
(PID.TID 0000.0001)      1 ------------------------------------------------------------------------------------------------------------------------------------------------------------------------------------------------
(PID.TID 0000.0001) // =======================================================
(PID.TID 0000.0001) // END OF FIELD                                          =
(PID.TID 0000.0001) // =======================================================
(PID.TID 0000.0001) 
(PID.TID 0000.0001) // =======================================================
(PID.TID 0000.0001) // Field Current etaN   at iteration         72
(PID.TID 0000.0001) // CMIN =          1.000000000000000E+32
(PID.TID 0000.0001) // CMAX =         -1.000000000000000E+32
(PID.TID 0000.0001) // CINT =          0.000000000000000E+00
(PID.TID 0000.0001) // SYMBOLS (CMIN->CMAX): -abcdefghijklmnopqrstuvwxyz+
(PID.TID 0000.0001) //                  0.0: .
(PID.TID 0000.0001) // RANGE I (Lo:Hi:Step):(  -2: 195:   1)
(PID.TID 0000.0001) // RANGE J (Lo:Hi:Step):(  35:  -2:  -1)
(PID.TID 0000.0001) // RANGE K (Lo:Hi:Step):(   1:   1:   1)
(PID.TID 0000.0001) // =======================================================
(PID.TID 0000.0001) K =   1
(PID.TID 0000.0001)                I=7       I=17      I=27      I=31      I=41      I=51      I=61      I=65      I=75      I=85      I=95      I=99      I=109     I=119     I=129     I=133     I=143     I=153     I=163     I=167     I=177     I=187
(PID.TID 0000.0001) |--J--|**0123456|890123456|890123456|890123450|234567890|234567890|234567890|234567234|678901234|678901234|678901234|678945678|012345678|012345678|012345678|016789012|456789012|456789012|456789012|890123456|890123456|890123456|89012345
(PID.TID 0000.0001)     35 ....................................................................................................................................................................................................................................
(PID.TID 0000.0001)     34 ....................................................................................................................................................................................................................................
(PID.TID 0000.0001)     33 ....................................................................................................................................................................................................................................
(PID.TID 0000.0001)     32 ....................................................................................................................................................................................................................................
(PID.TID 0000.0001)     31 ....................................................................................................................................................................................................................................
(PID.TID 0000.0001)     30 ....................................................................................................................................................................................................................................
(PID.TID 0000.0001)     29 ....................................................................................................................................................................................................................................
(PID.TID 0000.0001)     28 ....................................................................................................................................................................................................................................
(PID.TID 0000.0001)     27 ....................................................................................................................................................................................................................................
(PID.TID 0000.0001)     26 ....................................................................................................................................................................................................................................
(PID.TID 0000.0001)     25 ....................................................................................................................................................................................................................................
(PID.TID 0000.0001)     24 ....................................................................................................................................................................................................................................
(PID.TID 0000.0001)     23 ....................................................................................................................................................................................................................................
(PID.TID 0000.0001)     22 ....................................................................................................................................................................................................................................
(PID.TID 0000.0001)     21 ....................................................................................................................................................................................................................................
(PID.TID 0000.0001)     20 ....................................................................................................................................................................................................................................
(PID.TID 0000.0001)     19 ....................................................................................................................................................................................................................................
(PID.TID 0000.0001)     18 ....................................................................................................................................................................................................................................
(PID.TID 0000.0001)     17 ....................................................................................................................................................................................................................................
(PID.TID 0000.0001)     16 ....................................................................................................................................................................................................................................
(PID.TID 0000.0001)     15 ....................................................................................................................................................................................................................................
(PID.TID 0000.0001)     14 ....................................................................................................................................................................................................................................
(PID.TID 0000.0001)     13 ....................................................................................................................................................................................................................................
(PID.TID 0000.0001)     12 ....................................................................................................................................................................................................................................
(PID.TID 0000.0001)     11 ....................................................................................................................................................................................................................................
(PID.TID 0000.0001)     10 ....................................................................................................................................................................................................................................
(PID.TID 0000.0001)      9 ....................................................................................................................................................................................................................................
(PID.TID 0000.0001)      8 ....................................................................................................................................................................................................................................
(PID.TID 0000.0001)      7 ....................................................................................................................................................................................................................................
(PID.TID 0000.0001)      6 ....................................................................................................................................................................................................................................
(PID.TID 0000.0001)      5 ....................................................................................................................................................................................................................................
(PID.TID 0000.0001)      4 ....................................................................................................................................................................................................................................
(PID.TID 0000.0001)      3 ....................................................................................................................................................................................................................................
(PID.TID 0000.0001)      2 ....................................................................................................................................................................................................................................
(PID.TID 0000.0001)      1 ....................................................................................................................................................................................................................................
(PID.TID 0000.0001)      0 ....................................................................................................................................................................................................................................
(PID.TID 0000.0001)     -1 ....................................................................................................................................................................................................................................
(PID.TID 0000.0001)     -2 ....................................................................................................................................................................................................................................
(PID.TID 0000.0001) // =======================================================
(PID.TID 0000.0001) // END OF FIELD                                          =
(PID.TID 0000.0001) // =======================================================
(PID.TID 0000.0001) 
(PID.TID 0000.0001) // =======================================================
(PID.TID 0000.0001) // Begin MONITOR dynamic field statistics
(PID.TID 0000.0001) // =======================================================
(PID.TID 0000.0001) %MON time_tsnumber                =                    78
(PID.TID 0000.0001) %MON time_secondsf                =   2.8080000000000E+05
(PID.TID 0000.0001) %MON time_secondsi                =                280800
(PID.TID 0000.0001) %MON dynstat_eta_max              =   0.0000000000000E+00
(PID.TID 0000.0001) %MON dynstat_eta_min              =   0.0000000000000E+00
(PID.TID 0000.0001) %MON dynstat_eta_mean             =   0.0000000000000E+00
(PID.TID 0000.0001) %MON dynstat_eta_sd               =   0.0000000000000E+00
(PID.TID 0000.0001) %MON dynstat_eta_del2             =   0.0000000000000E+00
(PID.TID 0000.0001) %MON dynstat_uvel_max             =   3.8588909729170E+01
(PID.TID 0000.0001) %MON dynstat_uvel_min             =  -2.6640751857540E+01
(PID.TID 0000.0001) %MON dynstat_uvel_mean            =   1.1767582051515E+01
(PID.TID 0000.0001) %MON dynstat_uvel_sd              =   1.8925013763619E+01
(PID.TID 0000.0001) %MON dynstat_uvel_del2            =   3.3977035061841E-02
(PID.TID 0000.0001) %MON dynstat_vvel_max             =   3.8588909729170E+01
(PID.TID 0000.0001) %MON dynstat_vvel_min             =  -2.6640751857540E+01
(PID.TID 0000.0001) %MON dynstat_vvel_mean            =   1.1767582051515E+01
(PID.TID 0000.0001) %MON dynstat_vvel_sd              =   1.8925013763619E+01
(PID.TID 0000.0001) %MON dynstat_vvel_del2            =   3.3977035061841E-02
(PID.TID 0000.0001) %MON dynstat_wvel_max             =   4.8259469367879E-15
(PID.TID 0000.0001) %MON dynstat_wvel_min             =  -4.8259469367879E-15
(PID.TID 0000.0001) %MON dynstat_wvel_mean            =  -2.6408038640800E-34
(PID.TID 0000.0001) %MON dynstat_wvel_sd              =   1.3451301434752E-15
(PID.TID 0000.0001) %MON dynstat_wvel_del2            =   1.3733452540939E-15
(PID.TID 0000.0001) %MON dynstat_theta_max            =   1.8888647238775E+00
(PID.TID 0000.0001) %MON dynstat_theta_min            =   9.9989632646516E-01
(PID.TID 0000.0001) %MON dynstat_theta_mean           =   1.0066874826115E+00
(PID.TID 0000.0001) %MON dynstat_theta_sd             =   5.9104124264176E-02
(PID.TID 0000.0001) %MON dynstat_theta_del2           =   4.0706697409033E-04
(PID.TID 0000.0001) %MON dynstat_salt_max             =   1.9162505143338E+00
(PID.TID 0000.0001) %MON dynstat_salt_min             =   9.9964483283973E-01
(PID.TID 0000.0001) %MON dynstat_salt_mean            =   1.0067540351946E+00
(PID.TID 0000.0001) %MON dynstat_salt_sd              =   6.0353304899514E-02
(PID.TID 0000.0001) %MON dynstat_salt_del2            =   4.2855669073599E-04
(PID.TID 0000.0001) %MON advcfl_uvel_max              =   1.0218201555446E+00
(PID.TID 0000.0001) %MON advcfl_vvel_max              =   1.0218201555446E+00
(PID.TID 0000.0001) %MON advcfl_wvel_max              =   3.4746817944873E-16
(PID.TID 0000.0001) %MON advcfl_W_hf_max              =   0.0000000000000E+00
(PID.TID 0000.0001) %MON ke_max                       =   7.4455150023606E+02
(PID.TID 0000.0001) %MON ke_mean                      =   4.9661803126781E+02
(PID.TID 0000.0001) %MON ke_volint                    =   2.5323489810542E+22
(PID.TID 0000.0001) %MON ke_volmean                   =   4.9663214534537E+02
(PID.TID 0000.0001) // =======================================================
(PID.TID 0000.0001) // End MONITOR dynamic field statistics
(PID.TID 0000.0001) // =======================================================
(PID.TID 0000.0001) // =======================================================
(PID.TID 0000.0001) // Begin MONITOR dynamic field statistics
(PID.TID 0000.0001) // =======================================================
(PID.TID 0000.0001) %MON time_tsnumber                =                    84
(PID.TID 0000.0001) %MON time_secondsf                =   3.0240000000000E+05
(PID.TID 0000.0001) %MON time_secondsi                =                302400
(PID.TID 0000.0001) %MON dynstat_eta_max              =   0.0000000000000E+00
(PID.TID 0000.0001) %MON dynstat_eta_min              =   0.0000000000000E+00
(PID.TID 0000.0001) %MON dynstat_eta_mean             =   0.0000000000000E+00
(PID.TID 0000.0001) %MON dynstat_eta_sd               =   0.0000000000000E+00
(PID.TID 0000.0001) %MON dynstat_eta_del2             =   0.0000000000000E+00
(PID.TID 0000.0001) %MON dynstat_uvel_max             =   3.8588909729170E+01
(PID.TID 0000.0001) %MON dynstat_uvel_min             =  -2.6640751857540E+01
(PID.TID 0000.0001) %MON dynstat_uvel_mean            =   1.1767582051515E+01
(PID.TID 0000.0001) %MON dynstat_uvel_sd              =   1.8925013763619E+01
(PID.TID 0000.0001) %MON dynstat_uvel_del2            =   3.3977035061841E-02
(PID.TID 0000.0001) %MON dynstat_vvel_max             =   3.8588909729170E+01
(PID.TID 0000.0001) %MON dynstat_vvel_min             =  -2.6640751857540E+01
(PID.TID 0000.0001) %MON dynstat_vvel_mean            =   1.1767582051515E+01
(PID.TID 0000.0001) %MON dynstat_vvel_sd              =   1.8925013763619E+01
(PID.TID 0000.0001) %MON dynstat_vvel_del2            =   3.3977035061841E-02
(PID.TID 0000.0001) %MON dynstat_wvel_max             =   4.8259469367879E-15
(PID.TID 0000.0001) %MON dynstat_wvel_min             =  -4.8259469367879E-15
(PID.TID 0000.0001) %MON dynstat_wvel_mean            =  -2.6408038640800E-34
(PID.TID 0000.0001) %MON dynstat_wvel_sd              =   1.3451301434752E-15
(PID.TID 0000.0001) %MON dynstat_wvel_del2            =   1.3733452540939E-15
(PID.TID 0000.0001) %MON dynstat_theta_max            =   1.8831936798421E+00
(PID.TID 0000.0001) %MON dynstat_theta_min            =   9.9990584732723E-01
(PID.TID 0000.0001) %MON dynstat_theta_mean           =   1.0066874826115E+00
(PID.TID 0000.0001) %MON dynstat_theta_sd             =   5.8915759182950E-02
(PID.TID 0000.0001) %MON dynstat_theta_del2           =   4.0772847409608E-04
(PID.TID 0000.0001) %MON dynstat_salt_max             =   1.9107403398988E+00
(PID.TID 0000.0001) %MON dynstat_salt_min             =   9.9969236733405E-01
(PID.TID 0000.0001) %MON dynstat_salt_mean            =   1.0067540351946E+00
(PID.TID 0000.0001) %MON dynstat_salt_sd              =   6.0176106291362E-02
(PID.TID 0000.0001) %MON dynstat_salt_del2            =   4.2536101928667E-04
(PID.TID 0000.0001) %MON advcfl_uvel_max              =   1.0218201555446E+00
(PID.TID 0000.0001) %MON advcfl_vvel_max              =   1.0218201555446E+00
(PID.TID 0000.0001) %MON advcfl_wvel_max              =   3.4746817944873E-16
(PID.TID 0000.0001) %MON advcfl_W_hf_max              =   0.0000000000000E+00
(PID.TID 0000.0001) %MON ke_max                       =   7.4455150023606E+02
(PID.TID 0000.0001) %MON ke_mean                      =   4.9661803126781E+02
(PID.TID 0000.0001) %MON ke_volint                    =   2.5323489810542E+22
(PID.TID 0000.0001) %MON ke_volmean                   =   4.9663214534537E+02
(PID.TID 0000.0001) // =======================================================
(PID.TID 0000.0001) // End MONITOR dynamic field statistics
(PID.TID 0000.0001) // =======================================================
(PID.TID 0000.0001) // =======================================================
(PID.TID 0000.0001) // Begin MONITOR dynamic field statistics
(PID.TID 0000.0001) // =======================================================
(PID.TID 0000.0001) %MON time_tsnumber                =                    90
(PID.TID 0000.0001) %MON time_secondsf                =   3.2400000000000E+05
(PID.TID 0000.0001) %MON time_secondsi                =                324000
(PID.TID 0000.0001) %MON dynstat_eta_max              =   0.0000000000000E+00
(PID.TID 0000.0001) %MON dynstat_eta_min              =   0.0000000000000E+00
(PID.TID 0000.0001) %MON dynstat_eta_mean             =   0.0000000000000E+00
(PID.TID 0000.0001) %MON dynstat_eta_sd               =   0.0000000000000E+00
(PID.TID 0000.0001) %MON dynstat_eta_del2             =   0.0000000000000E+00
(PID.TID 0000.0001) %MON dynstat_uvel_max             =   3.8588909729170E+01
(PID.TID 0000.0001) %MON dynstat_uvel_min             =  -2.6640751857540E+01
(PID.TID 0000.0001) %MON dynstat_uvel_mean            =   1.1767582051515E+01
(PID.TID 0000.0001) %MON dynstat_uvel_sd              =   1.8925013763619E+01
(PID.TID 0000.0001) %MON dynstat_uvel_del2            =   3.3977035061841E-02
(PID.TID 0000.0001) %MON dynstat_vvel_max             =   3.8588909729170E+01
(PID.TID 0000.0001) %MON dynstat_vvel_min             =  -2.6640751857540E+01
(PID.TID 0000.0001) %MON dynstat_vvel_mean            =   1.1767582051515E+01
(PID.TID 0000.0001) %MON dynstat_vvel_sd              =   1.8925013763619E+01
(PID.TID 0000.0001) %MON dynstat_vvel_del2            =   3.3977035061841E-02
(PID.TID 0000.0001) %MON dynstat_wvel_max             =   4.8259469367879E-15
(PID.TID 0000.0001) %MON dynstat_wvel_min             =  -4.8259469367879E-15
(PID.TID 0000.0001) %MON dynstat_wvel_mean            =  -2.6408038640800E-34
(PID.TID 0000.0001) %MON dynstat_wvel_sd              =   1.3451301434752E-15
(PID.TID 0000.0001) %MON dynstat_wvel_del2            =   1.3733452540939E-15
(PID.TID 0000.0001) %MON dynstat_theta_max            =   1.8771599966901E+00
(PID.TID 0000.0001) %MON dynstat_theta_min            =   9.9991937941643E-01
(PID.TID 0000.0001) %MON dynstat_theta_mean           =   1.0066874826115E+00
(PID.TID 0000.0001) %MON dynstat_theta_sd             =   5.8736733095028E-02
(PID.TID 0000.0001) %MON dynstat_theta_del2           =   4.0548781690132E-04
(PID.TID 0000.0001) %MON dynstat_salt_max             =   1.9021956115820E+00
(PID.TID 0000.0001) %MON dynstat_salt_min             =   9.9973900397838E-01
(PID.TID 0000.0001) %MON dynstat_salt_mean            =   1.0067540351946E+00
(PID.TID 0000.0001) %MON dynstat_salt_sd              =   6.0003944552610E-02
(PID.TID 0000.0001) %MON dynstat_salt_del2            =   4.2411685115659E-04
(PID.TID 0000.0001) %MON advcfl_uvel_max              =   1.0218201555446E+00
(PID.TID 0000.0001) %MON advcfl_vvel_max              =   1.0218201555446E+00
(PID.TID 0000.0001) %MON advcfl_wvel_max              =   3.4746817944873E-16
(PID.TID 0000.0001) %MON advcfl_W_hf_max              =   0.0000000000000E+00
(PID.TID 0000.0001) %MON ke_max                       =   7.4455150023606E+02
(PID.TID 0000.0001) %MON ke_mean                      =   4.9661803126781E+02
(PID.TID 0000.0001) %MON ke_volint                    =   2.5323489810542E+22
(PID.TID 0000.0001) %MON ke_volmean                   =   4.9663214534537E+02
(PID.TID 0000.0001) // =======================================================
(PID.TID 0000.0001) // End MONITOR dynamic field statistics
(PID.TID 0000.0001) // =======================================================
(PID.TID 0000.0001) // =======================================================
(PID.TID 0000.0001) // Begin MONITOR dynamic field statistics
(PID.TID 0000.0001) // =======================================================
(PID.TID 0000.0001) %MON time_tsnumber                =                    96
(PID.TID 0000.0001) %MON time_secondsf                =   3.4560000000000E+05
(PID.TID 0000.0001) %MON time_secondsi                =                345600
(PID.TID 0000.0001) %MON dynstat_eta_max              =   0.0000000000000E+00
(PID.TID 0000.0001) %MON dynstat_eta_min              =   0.0000000000000E+00
(PID.TID 0000.0001) %MON dynstat_eta_mean             =   0.0000000000000E+00
(PID.TID 0000.0001) %MON dynstat_eta_sd               =   0.0000000000000E+00
(PID.TID 0000.0001) %MON dynstat_eta_del2             =   0.0000000000000E+00
(PID.TID 0000.0001) %MON dynstat_uvel_max             =   3.8588909729170E+01
(PID.TID 0000.0001) %MON dynstat_uvel_min             =  -2.6640751857540E+01
(PID.TID 0000.0001) %MON dynstat_uvel_mean            =   1.1767582051515E+01
(PID.TID 0000.0001) %MON dynstat_uvel_sd              =   1.8925013763619E+01
(PID.TID 0000.0001) %MON dynstat_uvel_del2            =   3.3977035061841E-02
(PID.TID 0000.0001) %MON dynstat_vvel_max             =   3.8588909729170E+01
(PID.TID 0000.0001) %MON dynstat_vvel_min             =  -2.6640751857540E+01
(PID.TID 0000.0001) %MON dynstat_vvel_mean            =   1.1767582051515E+01
(PID.TID 0000.0001) %MON dynstat_vvel_sd              =   1.8925013763619E+01
(PID.TID 0000.0001) %MON dynstat_vvel_del2            =   3.3977035061841E-02
(PID.TID 0000.0001) %MON dynstat_wvel_max             =   4.8259469367879E-15
(PID.TID 0000.0001) %MON dynstat_wvel_min             =  -4.8259469367879E-15
(PID.TID 0000.0001) %MON dynstat_wvel_mean            =  -2.6408038640800E-34
(PID.TID 0000.0001) %MON dynstat_wvel_sd              =   1.3451301434752E-15
(PID.TID 0000.0001) %MON dynstat_wvel_del2            =   1.3733452540939E-15
(PID.TID 0000.0001) %MON dynstat_theta_max            =   1.8732422702282E+00
(PID.TID 0000.0001) %MON dynstat_theta_min            =   9.9993689699914E-01
(PID.TID 0000.0001) %MON dynstat_theta_mean           =   1.0066874826115E+00
(PID.TID 0000.0001) %MON dynstat_theta_sd             =   5.8571312534961E-02
(PID.TID 0000.0001) %MON dynstat_theta_del2           =   4.0383570919939E-04
(PID.TID 0000.0001) %MON dynstat_salt_max             =   1.8988581870143E+00
(PID.TID 0000.0001) %MON dynstat_salt_min             =   9.9978402228944E-01
(PID.TID 0000.0001) %MON dynstat_salt_mean            =   1.0067568178448E+00
(PID.TID 0000.0001) %MON dynstat_salt_sd              =   5.9841499820020E-02
(PID.TID 0000.0001) %MON dynstat_salt_del2            =   4.2710516912788E-04
(PID.TID 0000.0001) %MON advcfl_uvel_max              =   1.0218201555446E+00
(PID.TID 0000.0001) %MON advcfl_vvel_max              =   1.0218201555446E+00
(PID.TID 0000.0001) %MON advcfl_wvel_max              =   3.4746817944873E-16
(PID.TID 0000.0001) %MON advcfl_W_hf_max              =   0.0000000000000E+00
(PID.TID 0000.0001) %MON ke_max                       =   7.4455150023606E+02
(PID.TID 0000.0001) %MON ke_mean                      =   4.9661803126781E+02
(PID.TID 0000.0001) %MON ke_volint                    =   2.5323489810542E+22
(PID.TID 0000.0001) %MON ke_volmean                   =   4.9663214534537E+02
(PID.TID 0000.0001) // =======================================================
(PID.TID 0000.0001) // End MONITOR dynamic field statistics
(PID.TID 0000.0001) // =======================================================
(PID.TID 0000.0001) // =======================================================
(PID.TID 0000.0001) // Field Current uVel   at iteration         96
(PID.TID 0000.0001) // CMIN =         -2.664075185753955E+01
(PID.TID 0000.0001) // CMAX =          3.858890972916976E+01
(PID.TID 0000.0001) // CINT =          2.415913392100345E+00
(PID.TID 0000.0001) // SYMBOLS (CMIN->CMAX): -abcdefghijklmnopqrstuvwxyz+
(PID.TID 0000.0001) //                  0.0: .
(PID.TID 0000.0001) // RANGE I (Lo:Hi:Step):(   1: 192:   1)
(PID.TID 0000.0001) // RANGE J (Lo:Hi:Step):(  32:   1:  -1)
(PID.TID 0000.0001) // RANGE K (Lo:Hi:Step):(   1:   1:   1)
(PID.TID 0000.0001) // =======================================================
(PID.TID 0000.0001) K =   1
(PID.TID 0000.0001)                I=10      I=20      I=30      I=40      I=50      I=60      I=70      I=80      I=90      I=100     I=110     I=120     I=130     I=140     I=150     I=160     I=170     I=180     I=190
(PID.TID 0000.0001) |--J--|123456789|123456789|123456789|123456789|123456789|123456789|123456789|123456789|123456789|123456789|123456789|123456789|123456789|123456789|123456789|123456789|123456789|123456789|123456789|12
(PID.TID 0000.0001)     32 xwwwwwwwwwwwwwwwwwwwwwwwwwwwwwwwxwwwwwwwwwwwwwwwwwwwwwwwwwwwwwwwea-----------------------------aeijjkkkkkkkkkkkk.kkkkkkkkkkkkllmeijjkkkkkkkkkkkk.kkkkkkkkkkkkllmquvvvvvvvvvvvvvvvvvvvvvvvvvvvvvu
(PID.TID 0000.0001)     31 xxxxwwwwwwwwwwwwwwwwwwwwwwwwwxxxxxxxwwwwwwwwwwwwwwwwwwwwwwwwwxxxecbaaaaaaaaaaaaaaaaaaaaaaaaaaabcegiijjjjkkkkkkkk.kkkkkkkkllllmmoegiijjjjkkkkkkkk.kkkkkkkkllllmmoqstuuuuuuuuuuuuuuuuuuuuuuuuuuuts
(PID.TID 0000.0001)     30 yxxxxxxxxxxxxxxxxxxxxxxxxxxxxxxxyxxxxxxxxxxxxxxxxxxxxxxxxxxxxxxxedcbbbaaaaaaaaaaaaaaaaaaaaabbbcdeghiijjjjjkkkkkk.kkkkkklllllmmnpeghiijjjjjkkkkkk.kkkkkklllllmmnpqrstttuuuuuuuuuuuuuuuuuuuuutttsr
(PID.TID 0000.0001)     29 yyyyxxxxxxxxxxxxxxxxxxxxxxxxxyyyyyyyxxxxxxxxxxxxxxxxxxxxxxxxxyyyeddccbbbbbbbbbbbbbbbbbbbbbbbccddefghiijjjjjkkkkk.kkkkklllllmmnopefghiijjjjjkkkkk.kkkkklllllmmnopqrssstttttttttttttttttttttttsssr
(PID.TID 0000.0001)     28 yyyyyyyyyyyxxxxxxxxxxxyyyyyyyyyyyyyyyyyyyyyxxxxxxxxxxxyyyyyyyyyyfeddccccccbbbbbbbbbbbbbccccccddeffghiiijjjjjkkkk.kkkklllllmmnnopffghiiijjjjjkkkk.kkkklllllmmnnoppqrrssssstttttttttttttttsssssrrq
(PID.TID 0000.0001)     27 yyyyyyyyyyyyyyyyyyyyyyyyyyyyyyyyyyyyyyyyyyyyyyyyyyyyyyyyyyyyyyyyfeeddddcccccccccccccccccccddddeefgghhiijjjjjkkkk.kkkklllllmmnnoofgghhiijjjjjkkkk.kkkklllllmmnnoopqqrrrsssssssssssssssssssssrrrqq
(PID.TID 0000.0001)     26 zzzzyyyyyyyyyyyyyyyyyyyyyyyyyzzzzzzzyyyyyyyyyyyyyyyyyyyyyyyyyzzzffeeedddddddddddddddddddddddeeeffgghhiijjjjjkkkk.kkklllllmmmnnoofgghhiijjjjjkkkk.kkklllllmmmnnooppqqqrrrrrrrrrrrrrrrrrrrrrrrqqqp
(PID.TID 0000.0001)     25 zzzzzzzzzzzzzzzzzzzzzzzzzzzzzzzzzzzzzzzzzzzzzzzzzzzzzzzzzzzzzzzzgfffeeeeeeeedddddddddeeeeeeeefffgghhiiijjjjjkkkk.kkklllllmmmnnnogghhiiijjjjjkkkk.kkklllllmmmnnnoopppqqqqqqrrrrrrrrrrrrrqqqqqqppp
(PID.TID 0000.0001)     24 zzzzzzzzzzzzzzzzzzzzzzzzzzzzzzzzzzzzzzzzzzzzzzzzzzzzzzzzzzzzzzzzgggfffffeeeeeeeeeeeeeeeeefffffggghhhiiijjjjjkkkk.kkkllllllmmmnnnghhhiiijjjjjkkkk.kkkllllllmmmnnnoopppppqqqqqqqqqqqqqqqqqqqpppppo
(PID.TID 0000.0001)     23 zzzzzzzzzzzzzzzzzzzzzzzzzzzzzzzzzzzzzzzzzzzzzzzzzzzzzzzzzzzzzzzzhggggfffffffffffffffffffffffgggghhhiiiijjjjjkkkk.kkkklllllmmmmnnhhhiiiijjjjjkkkk.kkkklllllmmmmnnnoooopppppppppppppppppppppppoooo
(PID.TID 0000.0001)     22 zzzzzzzzzzzzzzzzzzzzzzzzzzzzzzzzzzzzzzzzzzzzzzzzzzzzzzzzzzzzzzzzhhhhggggggggggggggggggggggggghhhhhiiiijjjjjjkkkk.kkkkllllllmmmmnhhiiiijjjjjjkkkk.kkkkllllllmmmmnnnnooooooooooooooooooooooooooonn
(PID.TID 0000.0001)     21 ++++++++++++++++++++++++++++++++++++++++++++++++++++++++++++++++ihhhhhhhhhhggggggggggghhhhhhhhhhiiiiijjjjjjkkkkk.kkkkkllllllmmmmiiiiijjjjjjkkkkk.kkkkkllllllmmmmmnnnnnnnnnooooooooooooonnnnnnnnn
(PID.TID 0000.0001)     20 ++++++++++++++++++++++++++++++++++++++++++++++++++++++++++++++++iiiiiihhhhhhhhhhhhhhhhhhhhhiiiiiiiijjjjjjjkkkkkk.kkkkkklllllllmmiiijjjjjjjkkkkkk.kkkkkklllllllmmmmmmmmnnnnnnnnnnnnnnnnnnnnnmmmmm
(PID.TID 0000.0001)     19 ++++++++++++++++++++++++++++++++++++++++++++++++++++++++++++++++jjiiiiiiiiiiiiiiiiiiiiiiiiiiiiijjjjjjjjjkkkkkkkk.kkkkkkklllllllljjjjjjjjkkkkkkkk.kkkkkkkllllllllllmmmmmmmmmmmmmmmmmmmmmmmmmmmmml
(PID.TID 0000.0001)     18 ++++++++++++++++++++++++++++++++++++++++++++++++++++++++++++++++jjjjjjjjjjjjjjjjjjjjjjjjjjjjjjjjjjjjjkkkkkkkkkkk.kkkkkkkkkkklllljjjjjkkkkkkkkkkk.kkkkkkkkkkkllllllllllllllllllllllllllllllllllll
(PID.TID 0000.0001)     17 ++++++++++++++++++++++++++++++++++++++++++++++++++++++++++++++++kkkkkkkkkkkkkkkkkkkkkkkkkkkkkkkkkkkkkkkkkkkkkkkk.kkkkkkkkkkkkkkkkkkkkkkkkkkkkkkk.kkkkkkkkkkkkkkkkkkkkkkkkkkkkkkkkkkkkkkkkkkkkkkk
(PID.TID 0000.0001)     16 ++++++++++++++++++++++++++++++++++++++++++++++++++++++++++++++++kkkkkkkkkkkkkkkkkkkkkkkkkkkkkkkkkkkkkkkkkkkkkkkk.kkkkkkkkkkkkkkkkkkkkkkkkkkkkkkk.kkkkkkkkkkkkkkkkkkkkkkkkkkkkkkkkkkkkkkkkkkkkkkk
(PID.TID 0000.0001)     15 ++++++++++++++++++++++++++++++++++++++++++++++++++++++++++++++++lllllllllllllllllllllllllllllllllllllkkkkkkkkkkk.kkkkkkkkkkkjjjjlllllkkkkkkkkkkk.kkkkkkkkkkkjjjjjjjjjjjjjjjjjjjjjjjjjjjjjjjjjjjj
(PID.TID 0000.0001)     14 ++++++++++++++++++++++++++++++++++++++++++++++++++++++++++++++++llmmmmmmmmmmmmmmmmmmmmmmmmmmmmmllllllllllkkkkkkk.kkkkkkkkjjjjjjjlllllllllkkkkkkk.kkkkkkkkjjjjjjjjjiiiiiiiiiiiiiiiiiiiiiiiiiiiiij
(PID.TID 0000.0001)     13 ++++++++++++++++++++++++++++++++++++++++++++++++++++++++++++++++mmmmmmnnnnnnnnnnnnnnnnnnnnnmmmmmmmmlllllllkkkkkk.kkkkkkjjjjjjjiimmmlllllllkkkkkk.kkkkkkjjjjjjjiiiiiiiihhhhhhhhhhhhhhhhhhhhhiiiii
(PID.TID 0000.0001)     12 ++++++++++++++++++++++++++++++++++++++++++++++++++++++++++++++++mnnnnnnnnnooooooooooooonnnnnnnnnmmmmmllllllkkkkk.kkkkkjjjjjjiiiimmmmmllllllkkkkk.kkkkkjjjjjjiiiiihhhhhhhhhhggggggggggghhhhhhhhhh
(PID.TID 0000.0001)     11 zzzzzzzzzzzzzzzzzzzzzzzzzzzzzzzzzzzzzzzzzzzzzzzzzzzzzzzzzzzzzzzznnnooooooooooooooooooooooooooonnnnmmmmllllllkkkk.kkkkjjjjjjiiiihnnmmmmllllllkkkk.kkkkjjjjjjiiiihhhhhggggggggggggggggggggggggghhh
(PID.TID 0000.0001)     10 zzzzzzzzzzzzzzzzzzzzzzzzzzzzzzzzzzzzzzzzzzzzzzzzzzzzzzzzzzzzzzzznoooopppppppppppppppppppppppoooonnnmmmmlllllkkkk.kkkkjjjjjiiiihhnnnmmmmlllllkkkk.kkkkjjjjjiiiihhhggggfffffffffffffffffffffffgggg
(PID.TID 0000.0001)      9 zzzzzzzzzzzzzzzzzzzzzzzzzzzzzzzzzzzzzzzzzzzzzzzzzzzzzzzzzzzzzzzzoopppppqqqqqqqqqqqqqqqqqqqpppppoonnnmmmllllllkkk.kkkkjjjjjiiihhhonnnmmmllllllkkk.kkkkjjjjjiiihhhgggfffffeeeeeeeeeeeeeeeeefffffgg
(PID.TID 0000.0001)      8 zzzzzzzzzzzzzzzzzzzzzzzzzzzzzzzzzzzzzzzzzzzzzzzzzzzzzzzzzzzzzzzzopppqqqqqqrrrrrrrrrrrrrqqqqqqpppoonnnmmmlllllkkk.kkkkjjjjjiiihhgoonnnmmmlllllkkk.kkkkjjjjjiiihhggfffeeeeeeeedddddddddeeeeeeeefff
(PID.TID 0000.0001)      7 zzzzyyyyyyyyyyyyyyyyyyyyyyyyyzzzzzzzyyyyyyyyyyyyyyyyyyyyyyyyyzzzppqqqrrrrrrrrrrrrrrrrrrrrrrrqqqppoonnmmmlllllkkk.kkkkjjjjjiihhggpoonnmmmlllllkkk.kkkkjjjjjiihhggffeeedddddddddddddddddddddddeeef
(PID.TID 0000.0001)      6 yyyyyyyyyyyyyyyyyyyyyyyyyyyyyyyyyyyyyyyyyyyyyyyyyyyyyyyyyyyyyyyypqqrrrsssssssssssssssssssssrrrqqpoonnmmlllllkkkk.kkkkjjjjjiihhggpoonnmmlllllkkkk.kkkkjjjjjiihhggfeeddddcccccccccccccccccccddddee
(PID.TID 0000.0001)      5 yyyyyyyyyyyxxxxxxxxxxxyyyyyyyyyyyyyyyyyyyyyxxxxxxxxxxxyyyyyyyyyypqrrssssstttttttttttttttsssssrrqpponnmmlllllkkkk.kkkkjjjjjiiihgfpponnmmlllllkkkk.kkkkjjjjjiiihgffeddccccccbbbbbbbbbbbbbccccccdde
(PID.TID 0000.0001)      4 yyyyxxxxxxxxxxxxxxxxxxxxxxxxxyyyyyyyxxxxxxxxxxxxxxxxxxxxxxxxxyyyqrssstttttttttttttttttttttttsssrqponmmlllllkkkkk.kkkkkjjjjjiihgfqponmmlllllkkkkk.kkkkkjjjjjiihgfeddccbbbbbbbbbbbbbbbbbbbbbbbccdd
(PID.TID 0000.0001)      3 yxxxxxxxxxxxxxxxxxxxxxxxxxxxxxxxyxxxxxxxxxxxxxxxxxxxxxxxxxxxxxxxqrstttuuuuuuuuuuuuuuuuuuuuutttsrqpnmmlllllkkkkkk.kkkkkkjjjjjiihgqpnmmlllllkkkkkk.kkkkkkjjjjjiihgedcbbbaaaaaaaaaaaaaaaaaaaaabbbcd
(PID.TID 0000.0001)      2 xxxxwwwwwwwwwwwwwwwwwwwwwwwwwxxxxxxxwwwwwwwwwwwwwwwwwwwwwwwwwxxxqstuuuuuuuuuuuuuuuuuuuuuuuuuuutsqommllllkkkkkkkk.kkkkkkkkjjjjiigqommllllkkkkkkkk.kkkkkkkkjjjjiigecbaaaaaaaaaaaaaaaaaaaaaaaaaaabc
(PID.TID 0000.0001)      1 xwwwwwwwwwwwwwwwwwwwwwwwwwwwwwwwxwwwwwwwwwwwwwwwwwwwwwwwwwwwwwwwquvvvvvvvvvvvvvvvvvvvvvvvvvvvvvuqmllkkkkkkkkkkkk.kkkkkkkkkkkkjjiqmllkkkkkkkkkkkk.kkkkkkkkkkkkjjiea-----------------------------a
(PID.TID 0000.0001) // =======================================================
(PID.TID 0000.0001) // END OF FIELD                                          =
(PID.TID 0000.0001) // =======================================================
(PID.TID 0000.0001) 
(PID.TID 0000.0001) // =======================================================
(PID.TID 0000.0001) // Field Current vVel   at iteration         96
(PID.TID 0000.0001) // CMIN =         -2.664075185753955E+01
(PID.TID 0000.0001) // CMAX =          3.858890972916976E+01
(PID.TID 0000.0001) // CINT =          2.415913392100345E+00
(PID.TID 0000.0001) // SYMBOLS (CMIN->CMAX): -abcdefghijklmnopqrstuvwxyz+
(PID.TID 0000.0001) //                  0.0: .
(PID.TID 0000.0001) // RANGE I (Lo:Hi:Step):(   1: 192:   1)
(PID.TID 0000.0001) // RANGE J (Lo:Hi:Step):(  32:   1:  -1)
(PID.TID 0000.0001) // RANGE K (Lo:Hi:Step):(   1:   1:   1)
(PID.TID 0000.0001) // =======================================================
(PID.TID 0000.0001) K =   1
(PID.TID 0000.0001)                I=10      I=20      I=30      I=40      I=50      I=60      I=70      I=80      I=90      I=100     I=110     I=120     I=130     I=140     I=150     I=160     I=170     I=180     I=190
(PID.TID 0000.0001) |--J--|123456789|123456789|123456789|123456789|123456789|123456789|123456789|123456789|123456789|123456789|123456789|123456789|123456789|123456789|123456789|123456789|123456789|123456789|123456789|12
(PID.TID 0000.0001)     32 iggffggghhhiijjkkllmmnnnooopppomiggffggghhhiijjkkllmmnnnooopppomacddeeffgghhijjkkllmnnooppqqrrsuwxxyyyzzzzz++++++++++zzzzzyyyxxwwxxyyyzzzzz++++++++++zzzzzyyyxxwusrrqqppoonnmllkkjjihhggffeeddca
(PID.TID 0000.0001)     31 jihgggghhhiiijjkkllmmmnnnoooonmljihgggghhhiiijjkkllmmmnnnoooonml-bcddeefgghhiijkklmmnnoppqqrsstvwxxyyyzzzzz++++++++++zzzzzyyyxxwwxxyyyzzzzz++++++++++zzzzzyyyxxwvtssrqqpponnmmlkkjiihhggfeeddcb-
(PID.TID 0000.0001)     30 jiihhhhhhiiijjjkklllmmmnnnnnnmmljiihhhhhhiiijjjkklllmmmnnnnnnmml-abcddeffghhiijkklmmnooppqrrstuvwxxyyyzzzzz++++++++++zzzzzyyyxxwwxxyyyzzzzz++++++++++zzzzzyyyxxwvutsrrqppoonmmlkkjiihhgffeddcba-
(PID.TID 0000.0001)     29 kjiiihhiiiiijjjkklllmmmmnnnnmmlkkjiiihhiiiiijjjkklllmmmmnnnnmmlk-abccdeefgghiijkklmmnoopqqrsstuvwwxxyyyzzzz++++++++++zzzzyyyxxwwwwxxyyyzzzz++++++++++zzzzyyyxxwwvutssrqqpoonmmlkkjiihggfeedccba-
(PID.TID 0000.0001)     28 kjjiiiiiiiijjjkkkklllmmmmmmmmllkkjjiiiiiiiijjjkkkklllmmmmmmmmllk-abbcddeffghiijkklmmnoppqrrsttuvwwxxyyyzzzz++++++++++zzzzyyyxxwwwwxxyyyzzzz++++++++++zzzzyyyxxwwvuttsrrqpponmmlkkjiihgffeddcbba-
(PID.TID 0000.0001)     27 kjjjiiiiiijjjjkkkkllllmmmmmmlllkkjjjiiiiiijjjjkkkkllllmmmmmmlllk-aabcddeffghhijkklmnnoppqrsstuuvwwxxyyyzzzz++++++++++zzzzyyyxxwwwwxxyyyzzzz++++++++++zzzzyyyxxwwvuutssrqpponnmlkkjihhgffeddcbaa-
(PID.TID 0000.0001)     26 kjjjjjjjjjjjjjkkkkllllllmmlllllkkjjjjjjjjjjjjjkkkkllllllmmlllllk-aabccdeffghhijkklmnnopqqrsstuuvwwxxyyyzzzz++++++++++zzzzyyyxxwwwwxxyyyzzzz++++++++++zzzzyyyxxwwvuutssrqqponnmlkkjihhgffedccbaa-
(PID.TID 0000.0001)     25 kkjjjjjjjjjjjkkkkkllllllllllllkkkkjjjjjjjjjjjkkkkkllllllllllllkk-aabccdeefghhijkklmnnopqqrsstuuvwwxxyyyzzzz++++++++++zzzzyyyxxwwwwxxyyyzzzz++++++++++zzzzyyyxxwwvuutssrqqponnmlkkjihhgfeedccbaa-
(PID.TID 0000.0001)     24 kkjjjjjjjjjjjkkkkkklllllllllllkkkkjjjjjjjjjjjkkkkkklllllllllllkk-aabccdeefghhijkklmnnopqqrsttuuvwwxxyyyzzzz++++++++++zzzzyyyxxwwwwxxyyyzzzz++++++++++zzzzyyyxxwwvuuttsrqqponnmlkkjihhgfeedccbaa-
(PID.TID 0000.0001)     23 kkkjjjjjjjjjkkkkkkkklllllllllkkkkkkjjjjjjjjjkkkkkkkklllllllllkkk-aabbcdeefghhijkklmnoopqrrsttuuvwwxxyyyzzzz++++++++++zzzzyyyxxwwwwxxyyyzzzz++++++++++zzzzyyyxxwwvuuttsrrqpoonmlkkjihhgfeedcbbaa-
(PID.TID 0000.0001)     22 kkkkjjjjjjjkkkkkkkkkklllllllkkkkkkkkjjjjjjjkkkkkkkkkklllllllkkkk-aabbcdeefgghijkklmnoopqrrsttuuvwwxxxyyzzzz++++++++++zzzzyyxxxwwwwxxxyyzzzz++++++++++zzzzyyxxxwwvuuttsrrqpoonmlkkjihggfeedcbbaa-
(PID.TID 0000.0001)     21 kkkkkkkkkkkkkkkkkkkkkkklllkkkkkkkkkkkkkkkkkkkkkkkkkkkkklllkkkkkk-aabbcddefgghijkklmnoopqrrsttuuvwwxxxyyzzzz++++++++++zzzzyyxxxwwwwxxxyyzzzz++++++++++zzzzyyxxxwwvuuttsrrqpoonmlkkjihggfeddcbbaa-
(PID.TID 0000.0001)     20 kkkkkkkkkkkkkkkkkkkkkkkkkkkkkkkkkkkkkkkkkkkkkkkkkkkkkkkkkkkkkkkk-aabbcddefgghijkklmnoopqrrsttuuvwwxxxyyzzzz++++++++++zzzzyyxxxwwwwxxxyyzzzz++++++++++zzzzyyxxxwwvuuttsrrqpoonmlkkjihggfeddcbbaa-
(PID.TID 0000.0001)     19 kkkkkkkkkkkkkkkkkkkkkkkkkkkkkkkkkkkkkkkkkkkkkkkkkkkkkkkkkkkkkkkk-aabbcddefgghijkklmnoopqrrsttuuvwwxxxyyzzzz++++++++++zzzzyyxxxwwwwxxxyyzzzz++++++++++zzzzyyxxxwwvuuttsrrqpoonmlkkjihggfeddcbbaa-
(PID.TID 0000.0001)     18 kkkkkkkkkkkkkkkkkkkkkkkkkkkkkkkkkkkkkkkkkkkkkkkkkkkkkkkkkkkkkkkk-aabbcddefgghijkklmnoopqrrsttuuvwwxxxyyzzzz++++++++++zzzzyyxxxwwwwxxxyyzzzz++++++++++zzzzyyxxxwwvuuttsrrqpoonmlkkjihggfeddcbbaa-
(PID.TID 0000.0001)     17 ................................................................-aabbcddefgghijkklmnoopqrrsttuuvwwxxxyyzzzz++++++++++zzzzyyxxxwwwwxxxyyzzzz++++++++++zzzzyyxxxwwvuuttsrrqpoonmlkkjihggfeddcbbaa-
(PID.TID 0000.0001)     16 kkkkkkkkkkkkkkkkkkkkkkkkkkkkkkkkkkkkkkkkkkkkkkkkkkkkkkkkkkkkkkkk-aabbcddefgghijkklmnoopqrrsttuuvwwxxxyyzzzz++++++++++zzzzyyxxxwwwwxxxyyzzzz++++++++++zzzzyyxxxwwvuuttsrrqpoonmlkkjihggfeddcbbaa-
(PID.TID 0000.0001)     15 kkkkkkkkkkkkkkkkkkkkkkkkkkkkkkkkkkkkkkkkkkkkkkkkkkkkkkkkkkkkkkkk-aabbcddefgghijkklmnoopqrrsttuuvwwxxxyyzzzz++++++++++zzzzyyxxxwwwwxxxyyzzzz++++++++++zzzzyyxxxwwvuuttsrrqpoonmlkkjihggfeddcbbaa-
(PID.TID 0000.0001)     14 kkkkkkkkkkkkkkkkkkkkkkkkkkkkkkkkkkkkkkkkkkkkkkkkkkkkkkkkkkkkkkkk-aabbcddefgghijkklmnoopqrrsttuuvwwxxxyyzzzz++++++++++zzzzyyxxxwwwwxxxyyzzzz++++++++++zzzzyyxxxwwvuuttsrrqpoonmlkkjihggfeddcbbaa-
(PID.TID 0000.0001)     13 kkkkkklllkkkkkkkkkkkkkkkkkkkkkkkkkkkkklllkkkkkkkkkkkkkkkkkkkkkkk-aabbcddefgghijkklmnoopqrrsttuuvwwxxxyyzzzz++++++++++zzzzyyxxxwwwwxxxyyzzzz++++++++++zzzzyyxxxwwvuuttsrrqpoonmlkkjihggfeddcbbaa-
(PID.TID 0000.0001)     12 kkkklllllllkkkkkkkkkkjjjjjjjkkkkkkkklllllllkkkkkkkkkkjjjjjjjkkkk-aabbcdeefgghijkklmnoopqrrsttuuvwwxxxyyzzzz++++++++++zzzzyyxxxwwwwxxxyyzzzz++++++++++zzzzyyxxxwwvuuttsrrqpoonmlkkjihggfeedcbbaa-
(PID.TID 0000.0001)     11 kkklllllllllkkkkkkkkjjjjjjjjjkkkkkklllllllllkkkkkkkkjjjjjjjjjkkk-aabbcdeefghhijkklmnoopqrrsttuuvwwxxyyyzzzz++++++++++zzzzyyyxxwwwwxxyyyzzzz++++++++++zzzzyyyxxwwvuuttsrrqpoonmlkkjihhgfeedcbbaa-
(PID.TID 0000.0001)     10 kklllllllllllkkkkkkjjjjjjjjjjjkkkklllllllllllkkkkkkjjjjjjjjjjjkk-aabccdeefghhijkklmnnopqqrsttuuvwwxxyyyzzzz++++++++++zzzzyyyxxwwwwxxyyyzzzz++++++++++zzzzyyyxxwwvuuttsrqqponnmlkkjihhgfeedccbaa-
(PID.TID 0000.0001)      9 kkllllllllllllkkkkkjjjjjjjjjjjkkkkllllllllllllkkkkkjjjjjjjjjjjkk-aabccdeefghhijkklmnnopqqrsstuuvwwxxyyyzzzz++++++++++zzzzyyyxxwwwwxxyyyzzzz++++++++++zzzzyyyxxwwvuutssrqqponnmlkkjihhgfeedccbaa-
(PID.TID 0000.0001)      8 klllllmmllllllkkkkjjjjjjjjjjjjjkklllllmmllllllkkkkjjjjjjjjjjjjjk-aabccdeffghhijkklmnnopqqrsstuuvwwxxyyyzzzz++++++++++zzzzyyyxxwwwwxxyyyzzzz++++++++++zzzzyyyxxwwvuutssrqqponnmlkkjihhgffedccbaa-
(PID.TID 0000.0001)      7 klllmmmmmmllllkkkkjjjjiiiiiijjjkklllmmmmmmllllkkkkjjjjiiiiiijjjk-aabcddeffghhijkklmnnoppqrsstuuvwwxxyyyzzzz++++++++++zzzzyyyxxwwwwxxyyyzzzz++++++++++zzzzyyyxxwwvuutssrqpponnmlkkjihhgffeddcbaa-
(PID.TID 0000.0001)      6 kllmmmmmmmmlllkkkkjjjiiiiiiiijjkkllmmmmmmmmlllkkkkjjjiiiiiiiijjk-abbcddeffghiijkklmmnoppqrrsttuvwwxxyyyzzzz++++++++++zzzzyyyxxwwwwxxyyyzzzz++++++++++zzzzyyyxxwwvuttsrrqpponmmlkkjiihgffeddcbba-
(PID.TID 0000.0001)      5 klmmnnnnmmmmlllkkjjjiiiiihhiiijkklmmnnnnmmmmlllkkjjjiiiiihhiiijk-abccdeefgghiijkklmmnoopqqrsstuvwwxxyyyzzzz++++++++++zzzzyyyxxwwwwxxyyyzzzz++++++++++zzzzyyyxxwwvutssrqqpoonmmlkkjiihggfeedccba-
(PID.TID 0000.0001)      4 lmmnnnnnnmmmlllkkjjjiiihhhhhhiijlmmnnnnnnmmmlllkkjjjiiihhhhhhiij-abcddeffghhiijkklmmnooppqrrstuvwxxyyyzzzzz++++++++++zzzzzyyyxxwwxxyyyzzzzz++++++++++zzzzzyyyxxwvutsrrqppoonmmlkkjiihhgffeddcba-
(PID.TID 0000.0001)      3 lmnoooonnnmmmllkkjjiiihhhgggghijlmnoooonnnmmmllkkjjiiihhhgggghij-bcddeefgghhiijkklmmnnoppqqrsstvwxxyyyzzzzz++++++++++zzzzzyyyxxwwxxyyyzzzzz++++++++++zzzzzyyyxxwvtssrqqpponnmmlkkjiihhggfeeddcb-
(PID.TID 0000.0001)      2 mopppooonnnmmllkkjjiihhhgggffggimopppooonnnmmllkkjjiihhhgggffggiacddeeffgghhijjkkllmnnooppqqrrsuwxxyyyzzzzz++++++++++zzzzzyyyxxwwxxyyyzzzzz++++++++++zzzzzyyyxxwusrrqqppoonnmllkkjjihhggffeeddca
(PID.TID 0000.0001)      1 qqqqpppoonnmmllkkjjiihhggfffeeeeqqqqpppoonnmmllkkjjiihhggfffeeeeeeeefffgghhiijjkkllmmnnoopppqqqqxxyyyyzzzzz++++++++++zzzzzyyyyxxxxyyyyzzzzz++++++++++zzzzzyyyyxxqqqqpppoonnmmllkkjjiihhggfffeeee
(PID.TID 0000.0001) // =======================================================
(PID.TID 0000.0001) // END OF FIELD                                          =
(PID.TID 0000.0001) // =======================================================
(PID.TID 0000.0001) 
(PID.TID 0000.0001) // =======================================================
(PID.TID 0000.0001) // Field Current theta  at iteration         96
(PID.TID 0000.0001) // CMIN =          9.999368969991382E-01
(PID.TID 0000.0001) // CMAX =          1.873242270228167E+00
(PID.TID 0000.0001) // CINT =          3.234464345292697E-02
(PID.TID 0000.0001) // SYMBOLS (CMIN->CMAX): -abcdefghijklmnopqrstuvwxyz+
(PID.TID 0000.0001) //                  0.0: .
(PID.TID 0000.0001) // RANGE I (Lo:Hi:Step):(   1: 192:   1)
(PID.TID 0000.0001) // RANGE J (Lo:Hi:Step):(  32:   1:  -1)
(PID.TID 0000.0001) // RANGE K (Lo:Hi:Step):(   1:   1:   1)
(PID.TID 0000.0001) // =======================================================
(PID.TID 0000.0001) K =   1
(PID.TID 0000.0001)                I=10      I=20      I=30      I=40      I=50      I=60      I=70      I=80      I=90      I=100     I=110     I=120     I=130     I=140     I=150     I=160     I=170     I=180     I=190
(PID.TID 0000.0001) |--J--|123456789|123456789|123456789|123456789|123456789|123456789|123456789|123456789|123456789|123456789|123456789|123456789|123456789|123456789|123456789|123456789|123456789|123456789|123456789|12
(PID.TID 0000.0001)     32 ------------------------------------------------------------------------------------------------------------abdeedba----------------------------------------------------------------------------
(PID.TID 0000.0001)     31 -----------------------------------------------------------------------------------------------------------acfijjifca---------------------------------------------------------------------------
(PID.TID 0000.0001)     30 -----------------------------------------------------------------------------------------------------------bfjnppnjfb---------------------------------------------------------------------------
(PID.TID 0000.0001)     29 ----------------------------------------------------------------------------------------------------------adhntvvtnhda--------------------------------------------------------------------------
(PID.TID 0000.0001)     28 ----------------------------------------------------------------------------------------------------------adjqwzzwqjda--------------------------------------------------------------------------
(PID.TID 0000.0001)     27 ----------------------------------------------------------------------------------------------------------aekrx++xrkea--------------------------------------------------------------------------
(PID.TID 0000.0001)     26 ----------------------------------------------------------------------------------------------------------adjqwzzwqjda--------------------------------------------------------------------------
(PID.TID 0000.0001)     25 -----------------------------------------------------------------------------------------------------------chnsvvsnhc---------------------------------------------------------------------------
(PID.TID 0000.0001)     24 -----------------------------------------------------------------------------------------------------------bejnppnjeb---------------------------------------------------------------------------
(PID.TID 0000.0001)     23 -----------------------------------------------------------------------------------------------------------acehjjheca---------------------------------------------------------------------------
(PID.TID 0000.0001)     22 ------------------------------------------------------------------------------------------------------------abcddcba----------------------------------------------------------------------------
(PID.TID 0000.0001)     21 ---------------------------------------------------------------------------------------------------------------aa-------------------------------------------------------------------------------
(PID.TID 0000.0001)     20 ------------------------------------------------------------------------------------------------------------------------------------------------------------------------------------------------
(PID.TID 0000.0001)     19 ------------------------------------------------------------------------------------------------------------------------------------------------------------------------------------------------
(PID.TID 0000.0001)     18 ------------------------------------------------------------------------------------------------------------------------------------------------------------------------------------------------
(PID.TID 0000.0001)     17 ------------------------------------------------------------------------------------------------------------------------------------------------------------------------------------------------
(PID.TID 0000.0001)     16 ------------------------------------------------------------------------------------------------------------------------------------------------------------------------------------------------
(PID.TID 0000.0001)     15 ------------------------------------------------------------------------------------------------------------------------------------------------------------------------------------------------
(PID.TID 0000.0001)     14 ------------------------------------------------------------------------------------------------------------------------------------------------------------------------------------------------
(PID.TID 0000.0001)     13 ------------------------------------------------------------------------------------------------------------------------------------------------------------------------------------------------
(PID.TID 0000.0001)     12 ------------------------------------------------------------------------------------------------------------------------------------------------------------------------------------------------
(PID.TID 0000.0001)     11 ------------------------------------------------------------------------------------------------------------------------------------------------------------------------------------------------
(PID.TID 0000.0001)     10 ------------------------------------------------------------------------------------------------------------------------------------------------------------------------------------------------
(PID.TID 0000.0001)      9 ------------------------------------------------------------------------------------------------------------------------------------------------------------------------------------------------
(PID.TID 0000.0001)      8 ------------------------------------------------------------------------------------------------------------------------------------------------------------------------------------------------
(PID.TID 0000.0001)      7 ------------------------------------------------------------------------------------------------------------------------------------------------------------------------------------------------
(PID.TID 0000.0001)      6 ------------------------------------------------------------------------------------------------------------------------------------------------------------------------------------------------
(PID.TID 0000.0001)      5 ------------------------------------------------------------------------------------------------------------------------------------------------------------------------------------------------
(PID.TID 0000.0001)      4 ------------------------------------------------------------------------------------------------------------------------------------------------------------------------------------------------
(PID.TID 0000.0001)      3 ------------------------------------------------------------------------------------------------------------------------------------------------------------------------------------------------
(PID.TID 0000.0001)      2 ------------------------------------------------------------------------------------------------------------------------------------------------------------------------------------------------
(PID.TID 0000.0001)      1 ----------------------------------------------------------------------------------------------------------------------------------------------aaaa----------------------------------------------
(PID.TID 0000.0001) // =======================================================
(PID.TID 0000.0001) // END OF FIELD                                          =
(PID.TID 0000.0001) // =======================================================
(PID.TID 0000.0001) 
(PID.TID 0000.0001) // =======================================================
(PID.TID 0000.0001) // Field Current etaN   at iteration         96
(PID.TID 0000.0001) // CMIN =          1.000000000000000E+32
(PID.TID 0000.0001) // CMAX =         -1.000000000000000E+32
(PID.TID 0000.0001) // CINT =          0.000000000000000E+00
(PID.TID 0000.0001) // SYMBOLS (CMIN->CMAX): -abcdefghijklmnopqrstuvwxyz+
(PID.TID 0000.0001) //                  0.0: .
(PID.TID 0000.0001) // RANGE I (Lo:Hi:Step):(  -2: 195:   1)
(PID.TID 0000.0001) // RANGE J (Lo:Hi:Step):(  35:  -2:  -1)
(PID.TID 0000.0001) // RANGE K (Lo:Hi:Step):(   1:   1:   1)
(PID.TID 0000.0001) // =======================================================
(PID.TID 0000.0001) K =   1
(PID.TID 0000.0001)                I=7       I=17      I=27      I=31      I=41      I=51      I=61      I=65      I=75      I=85      I=95      I=99      I=109     I=119     I=129     I=133     I=143     I=153     I=163     I=167     I=177     I=187
(PID.TID 0000.0001) |--J--|**0123456|890123456|890123456|890123450|234567890|234567890|234567890|234567234|678901234|678901234|678901234|678945678|012345678|012345678|012345678|016789012|456789012|456789012|456789012|890123456|890123456|890123456|89012345
(PID.TID 0000.0001)     35 ....................................................................................................................................................................................................................................
(PID.TID 0000.0001)     34 ....................................................................................................................................................................................................................................
(PID.TID 0000.0001)     33 ....................................................................................................................................................................................................................................
(PID.TID 0000.0001)     32 ....................................................................................................................................................................................................................................
(PID.TID 0000.0001)     31 ....................................................................................................................................................................................................................................
(PID.TID 0000.0001)     30 ....................................................................................................................................................................................................................................
(PID.TID 0000.0001)     29 ....................................................................................................................................................................................................................................
(PID.TID 0000.0001)     28 ....................................................................................................................................................................................................................................
(PID.TID 0000.0001)     27 ....................................................................................................................................................................................................................................
(PID.TID 0000.0001)     26 ....................................................................................................................................................................................................................................
(PID.TID 0000.0001)     25 ....................................................................................................................................................................................................................................
(PID.TID 0000.0001)     24 ....................................................................................................................................................................................................................................
(PID.TID 0000.0001)     23 ....................................................................................................................................................................................................................................
(PID.TID 0000.0001)     22 ....................................................................................................................................................................................................................................
(PID.TID 0000.0001)     21 ....................................................................................................................................................................................................................................
(PID.TID 0000.0001)     20 ....................................................................................................................................................................................................................................
(PID.TID 0000.0001)     19 ....................................................................................................................................................................................................................................
(PID.TID 0000.0001)     18 ....................................................................................................................................................................................................................................
(PID.TID 0000.0001)     17 ....................................................................................................................................................................................................................................
(PID.TID 0000.0001)     16 ....................................................................................................................................................................................................................................
(PID.TID 0000.0001)     15 ....................................................................................................................................................................................................................................
(PID.TID 0000.0001)     14 ....................................................................................................................................................................................................................................
(PID.TID 0000.0001)     13 ....................................................................................................................................................................................................................................
(PID.TID 0000.0001)     12 ....................................................................................................................................................................................................................................
(PID.TID 0000.0001)     11 ....................................................................................................................................................................................................................................
(PID.TID 0000.0001)     10 ....................................................................................................................................................................................................................................
(PID.TID 0000.0001)      9 ....................................................................................................................................................................................................................................
(PID.TID 0000.0001)      8 ....................................................................................................................................................................................................................................
(PID.TID 0000.0001)      7 ....................................................................................................................................................................................................................................
(PID.TID 0000.0001)      6 ....................................................................................................................................................................................................................................
(PID.TID 0000.0001)      5 ....................................................................................................................................................................................................................................
(PID.TID 0000.0001)      4 ....................................................................................................................................................................................................................................
(PID.TID 0000.0001)      3 ....................................................................................................................................................................................................................................
(PID.TID 0000.0001)      2 ....................................................................................................................................................................................................................................
(PID.TID 0000.0001)      1 ....................................................................................................................................................................................................................................
(PID.TID 0000.0001)      0 ....................................................................................................................................................................................................................................
(PID.TID 0000.0001)     -1 ....................................................................................................................................................................................................................................
(PID.TID 0000.0001)     -2 ....................................................................................................................................................................................................................................
(PID.TID 0000.0001) // =======================================================
(PID.TID 0000.0001) // END OF FIELD                                          =
(PID.TID 0000.0001) // =======================================================
(PID.TID 0000.0001) 
(PID.TID 0000.0001) // =======================================================
(PID.TID 0000.0001) // Begin MONITOR dynamic field statistics
(PID.TID 0000.0001) // =======================================================
(PID.TID 0000.0001) %MON time_tsnumber                =                   102
(PID.TID 0000.0001) %MON time_secondsf                =   3.6720000000000E+05
(PID.TID 0000.0001) %MON time_secondsi                =                367200
(PID.TID 0000.0001) %MON dynstat_eta_max              =   0.0000000000000E+00
(PID.TID 0000.0001) %MON dynstat_eta_min              =   0.0000000000000E+00
(PID.TID 0000.0001) %MON dynstat_eta_mean             =   0.0000000000000E+00
(PID.TID 0000.0001) %MON dynstat_eta_sd               =   0.0000000000000E+00
(PID.TID 0000.0001) %MON dynstat_eta_del2             =   0.0000000000000E+00
(PID.TID 0000.0001) %MON dynstat_uvel_max             =   3.8588909729170E+01
(PID.TID 0000.0001) %MON dynstat_uvel_min             =  -2.6640751857540E+01
(PID.TID 0000.0001) %MON dynstat_uvel_mean            =   1.1767582051515E+01
(PID.TID 0000.0001) %MON dynstat_uvel_sd              =   1.8925013763619E+01
(PID.TID 0000.0001) %MON dynstat_uvel_del2            =   3.3977035061841E-02
(PID.TID 0000.0001) %MON dynstat_vvel_max             =   3.8588909729170E+01
(PID.TID 0000.0001) %MON dynstat_vvel_min             =  -2.6640751857540E+01
(PID.TID 0000.0001) %MON dynstat_vvel_mean            =   1.1767582051515E+01
(PID.TID 0000.0001) %MON dynstat_vvel_sd              =   1.8925013763619E+01
(PID.TID 0000.0001) %MON dynstat_vvel_del2            =   3.3977035061841E-02
(PID.TID 0000.0001) %MON dynstat_wvel_max             =   4.8259469367879E-15
(PID.TID 0000.0001) %MON dynstat_wvel_min             =  -4.8259469367879E-15
(PID.TID 0000.0001) %MON dynstat_wvel_mean            =  -2.6408038640800E-34
(PID.TID 0000.0001) %MON dynstat_wvel_sd              =   1.3451301434752E-15
(PID.TID 0000.0001) %MON dynstat_wvel_del2            =   1.3733452540939E-15
(PID.TID 0000.0001) %MON dynstat_theta_max            =   1.8706482939723E+00
(PID.TID 0000.0001) %MON dynstat_theta_min            =   9.9993977314797E-01
(PID.TID 0000.0001) %MON dynstat_theta_mean           =   1.0066874826115E+00
(PID.TID 0000.0001) %MON dynstat_theta_sd             =   5.8420530268921E-02
(PID.TID 0000.0001) %MON dynstat_theta_del2           =   4.0228559268093E-04
(PID.TID 0000.0001) %MON dynstat_salt_max             =   1.8958384866854E+00
(PID.TID 0000.0001) %MON dynstat_salt_min             =   9.9981759126277E-01
(PID.TID 0000.0001) %MON dynstat_salt_mean            =   1.0067777725450E+00
(PID.TID 0000.0001) %MON dynstat_salt_sd              =   5.9788445610845E-02
(PID.TID 0000.0001) %MON dynstat_salt_del2            =   4.3192296394371E-04
(PID.TID 0000.0001) %MON advcfl_uvel_max              =   1.0218201555446E+00
(PID.TID 0000.0001) %MON advcfl_vvel_max              =   1.0218201555446E+00
(PID.TID 0000.0001) %MON advcfl_wvel_max              =   3.4746817944873E-16
(PID.TID 0000.0001) %MON advcfl_W_hf_max              =   0.0000000000000E+00
(PID.TID 0000.0001) %MON ke_max                       =   7.4455150023606E+02
(PID.TID 0000.0001) %MON ke_mean                      =   4.9661803126781E+02
(PID.TID 0000.0001) %MON ke_volint                    =   2.5323489810542E+22
(PID.TID 0000.0001) %MON ke_volmean                   =   4.9663214534537E+02
(PID.TID 0000.0001) // =======================================================
(PID.TID 0000.0001) // End MONITOR dynamic field statistics
(PID.TID 0000.0001) // =======================================================
(PID.TID 0000.0001) // =======================================================
(PID.TID 0000.0001) // Begin MONITOR dynamic field statistics
(PID.TID 0000.0001) // =======================================================
(PID.TID 0000.0001) %MON time_tsnumber                =                   108
(PID.TID 0000.0001) %MON time_secondsf                =   3.8880000000000E+05
(PID.TID 0000.0001) %MON time_secondsi                =                388800
(PID.TID 0000.0001) %MON dynstat_eta_max              =   0.0000000000000E+00
(PID.TID 0000.0001) %MON dynstat_eta_min              =   0.0000000000000E+00
(PID.TID 0000.0001) %MON dynstat_eta_mean             =   0.0000000000000E+00
(PID.TID 0000.0001) %MON dynstat_eta_sd               =   0.0000000000000E+00
(PID.TID 0000.0001) %MON dynstat_eta_del2             =   0.0000000000000E+00
(PID.TID 0000.0001) %MON dynstat_uvel_max             =   3.8588909729170E+01
(PID.TID 0000.0001) %MON dynstat_uvel_min             =  -2.6640751857540E+01
(PID.TID 0000.0001) %MON dynstat_uvel_mean            =   1.1767582051515E+01
(PID.TID 0000.0001) %MON dynstat_uvel_sd              =   1.8925013763619E+01
(PID.TID 0000.0001) %MON dynstat_uvel_del2            =   3.3977035061841E-02
(PID.TID 0000.0001) %MON dynstat_vvel_max             =   3.8588909729170E+01
(PID.TID 0000.0001) %MON dynstat_vvel_min             =  -2.6640751857540E+01
(PID.TID 0000.0001) %MON dynstat_vvel_mean            =   1.1767582051515E+01
(PID.TID 0000.0001) %MON dynstat_vvel_sd              =   1.8925013763619E+01
(PID.TID 0000.0001) %MON dynstat_vvel_del2            =   3.3977035061841E-02
(PID.TID 0000.0001) %MON dynstat_wvel_max             =   4.8259469367879E-15
(PID.TID 0000.0001) %MON dynstat_wvel_min             =  -4.8259469367879E-15
(PID.TID 0000.0001) %MON dynstat_wvel_mean            =  -2.6408038640800E-34
(PID.TID 0000.0001) %MON dynstat_wvel_sd              =   1.3451301434752E-15
(PID.TID 0000.0001) %MON dynstat_wvel_del2            =   1.3733452540939E-15
(PID.TID 0000.0001) %MON dynstat_theta_max            =   1.8644742558243E+00
(PID.TID 0000.0001) %MON dynstat_theta_min            =   9.9994562812883E-01
(PID.TID 0000.0001) %MON dynstat_theta_mean           =   1.0066874826115E+00
(PID.TID 0000.0001) %MON dynstat_theta_sd             =   5.8282942270015E-02
(PID.TID 0000.0001) %MON dynstat_theta_del2           =   3.9969394538249E-04
(PID.TID 0000.0001) %MON dynstat_salt_max             =   1.8934190941833E+00
(PID.TID 0000.0001) %MON dynstat_salt_min             =   9.9982946976798E-01
(PID.TID 0000.0001) %MON dynstat_salt_mean            =   1.0068180834967E+00
(PID.TID 0000.0001) %MON dynstat_salt_sd              =   5.9985772952276E-02
(PID.TID 0000.0001) %MON dynstat_salt_del2            =   4.2230961404729E-04
(PID.TID 0000.0001) %MON advcfl_uvel_max              =   1.0218201555446E+00
(PID.TID 0000.0001) %MON advcfl_vvel_max              =   1.0218201555446E+00
(PID.TID 0000.0001) %MON advcfl_wvel_max              =   3.4746817944873E-16
(PID.TID 0000.0001) %MON advcfl_W_hf_max              =   0.0000000000000E+00
(PID.TID 0000.0001) %MON ke_max                       =   7.4455150023606E+02
(PID.TID 0000.0001) %MON ke_mean                      =   4.9661803126781E+02
(PID.TID 0000.0001) %MON ke_volint                    =   2.5323489810542E+22
(PID.TID 0000.0001) %MON ke_volmean                   =   4.9663214534537E+02
(PID.TID 0000.0001) // =======================================================
(PID.TID 0000.0001) // End MONITOR dynamic field statistics
(PID.TID 0000.0001) // =======================================================
(PID.TID 0000.0001) // =======================================================
(PID.TID 0000.0001) // Begin MONITOR dynamic field statistics
(PID.TID 0000.0001) // =======================================================
(PID.TID 0000.0001) %MON time_tsnumber                =                   114
(PID.TID 0000.0001) %MON time_secondsf                =   4.1040000000000E+05
(PID.TID 0000.0001) %MON time_secondsi                =                410400
(PID.TID 0000.0001) %MON dynstat_eta_max              =   0.0000000000000E+00
(PID.TID 0000.0001) %MON dynstat_eta_min              =   0.0000000000000E+00
(PID.TID 0000.0001) %MON dynstat_eta_mean             =   0.0000000000000E+00
(PID.TID 0000.0001) %MON dynstat_eta_sd               =   0.0000000000000E+00
(PID.TID 0000.0001) %MON dynstat_eta_del2             =   0.0000000000000E+00
(PID.TID 0000.0001) %MON dynstat_uvel_max             =   3.8588909729170E+01
(PID.TID 0000.0001) %MON dynstat_uvel_min             =  -2.6640751857540E+01
(PID.TID 0000.0001) %MON dynstat_uvel_mean            =   1.1767582051515E+01
(PID.TID 0000.0001) %MON dynstat_uvel_sd              =   1.8925013763619E+01
(PID.TID 0000.0001) %MON dynstat_uvel_del2            =   3.3977035061841E-02
(PID.TID 0000.0001) %MON dynstat_vvel_max             =   3.8588909729170E+01
(PID.TID 0000.0001) %MON dynstat_vvel_min             =  -2.6640751857540E+01
(PID.TID 0000.0001) %MON dynstat_vvel_mean            =   1.1767582051515E+01
(PID.TID 0000.0001) %MON dynstat_vvel_sd              =   1.8925013763619E+01
(PID.TID 0000.0001) %MON dynstat_vvel_del2            =   3.3977035061841E-02
(PID.TID 0000.0001) %MON dynstat_wvel_max             =   4.8259469367879E-15
(PID.TID 0000.0001) %MON dynstat_wvel_min             =  -4.8259469367879E-15
(PID.TID 0000.0001) %MON dynstat_wvel_mean            =  -2.6408038640800E-34
(PID.TID 0000.0001) %MON dynstat_wvel_sd              =   1.3451301434752E-15
(PID.TID 0000.0001) %MON dynstat_wvel_del2            =   1.3733452540939E-15
(PID.TID 0000.0001) %MON dynstat_theta_max            =   1.8635325215851E+00
(PID.TID 0000.0001) %MON dynstat_theta_min            =   9.9994999986569E-01
(PID.TID 0000.0001) %MON dynstat_theta_mean           =   1.0066874826115E+00
(PID.TID 0000.0001) %MON dynstat_theta_sd             =   5.8145590180416E-02
(PID.TID 0000.0001) %MON dynstat_theta_del2           =   3.9876949996303E-04
(PID.TID 0000.0001) %MON dynstat_salt_max             =   1.8943414234824E+00
(PID.TID 0000.0001) %MON dynstat_salt_min             =   9.9984096667284E-01
(PID.TID 0000.0001) %MON dynstat_salt_mean            =   1.0068561397912E+00
(PID.TID 0000.0001) %MON dynstat_salt_sd              =   6.0173984304243E-02
(PID.TID 0000.0001) %MON dynstat_salt_del2            =   4.2070454694255E-04
(PID.TID 0000.0001) %MON advcfl_uvel_max              =   1.0218201555446E+00
(PID.TID 0000.0001) %MON advcfl_vvel_max              =   1.0218201555446E+00
(PID.TID 0000.0001) %MON advcfl_wvel_max              =   3.4746817944873E-16
(PID.TID 0000.0001) %MON advcfl_W_hf_max              =   0.0000000000000E+00
(PID.TID 0000.0001) %MON ke_max                       =   7.4455150023606E+02
(PID.TID 0000.0001) %MON ke_mean                      =   4.9661803126781E+02
(PID.TID 0000.0001) %MON ke_volint                    =   2.5323489810542E+22
(PID.TID 0000.0001) %MON ke_volmean                   =   4.9663214534537E+02
(PID.TID 0000.0001) // =======================================================
(PID.TID 0000.0001) // End MONITOR dynamic field statistics
(PID.TID 0000.0001) // =======================================================
(PID.TID 0000.0001) // =======================================================
(PID.TID 0000.0001) // Begin MONITOR dynamic field statistics
(PID.TID 0000.0001) // =======================================================
(PID.TID 0000.0001) %MON time_tsnumber                =                   120
(PID.TID 0000.0001) %MON time_secondsf                =   4.3200000000000E+05
(PID.TID 0000.0001) %MON time_secondsi                =                432000
(PID.TID 0000.0001) %MON dynstat_eta_max              =   0.0000000000000E+00
(PID.TID 0000.0001) %MON dynstat_eta_min              =   0.0000000000000E+00
(PID.TID 0000.0001) %MON dynstat_eta_mean             =   0.0000000000000E+00
(PID.TID 0000.0001) %MON dynstat_eta_sd               =   0.0000000000000E+00
(PID.TID 0000.0001) %MON dynstat_eta_del2             =   0.0000000000000E+00
(PID.TID 0000.0001) %MON dynstat_uvel_max             =   3.8588909729170E+01
(PID.TID 0000.0001) %MON dynstat_uvel_min             =  -2.6640751857540E+01
(PID.TID 0000.0001) %MON dynstat_uvel_mean            =   1.1767582051515E+01
(PID.TID 0000.0001) %MON dynstat_uvel_sd              =   1.8925013763619E+01
(PID.TID 0000.0001) %MON dynstat_uvel_del2            =   3.3977035061841E-02
(PID.TID 0000.0001) %MON dynstat_vvel_max             =   3.8588909729170E+01
(PID.TID 0000.0001) %MON dynstat_vvel_min             =  -2.6640751857540E+01
(PID.TID 0000.0001) %MON dynstat_vvel_mean            =   1.1767582051515E+01
(PID.TID 0000.0001) %MON dynstat_vvel_sd              =   1.8925013763619E+01
(PID.TID 0000.0001) %MON dynstat_vvel_del2            =   3.3977035061841E-02
(PID.TID 0000.0001) %MON dynstat_wvel_max             =   4.8259469367879E-15
(PID.TID 0000.0001) %MON dynstat_wvel_min             =  -4.8259469367879E-15
(PID.TID 0000.0001) %MON dynstat_wvel_mean            =  -2.6408038640800E-34
(PID.TID 0000.0001) %MON dynstat_wvel_sd              =   1.3451301434752E-15
(PID.TID 0000.0001) %MON dynstat_wvel_del2            =   1.3733452540939E-15
(PID.TID 0000.0001) %MON dynstat_theta_max            =   1.8592469049879E+00
(PID.TID 0000.0001) %MON dynstat_theta_min            =   9.9995136163648E-01
(PID.TID 0000.0001) %MON dynstat_theta_mean           =   1.0066874826115E+00
(PID.TID 0000.0001) %MON dynstat_theta_sd             =   5.8008880726766E-02
(PID.TID 0000.0001) %MON dynstat_theta_del2           =   3.9800226460819E-04
(PID.TID 0000.0001) %MON dynstat_salt_max             =   1.8939696875932E+00
(PID.TID 0000.0001) %MON dynstat_salt_min             =   9.9985576643762E-01
(PID.TID 0000.0001) %MON dynstat_salt_mean            =   1.0068701074047E+00
(PID.TID 0000.0001) %MON dynstat_salt_sd              =   6.0104141895184E-02
(PID.TID 0000.0001) %MON dynstat_salt_del2            =   4.3037802981784E-04
(PID.TID 0000.0001) %MON advcfl_uvel_max              =   1.0218201555446E+00
(PID.TID 0000.0001) %MON advcfl_vvel_max              =   1.0218201555446E+00
(PID.TID 0000.0001) %MON advcfl_wvel_max              =   3.4746817944873E-16
(PID.TID 0000.0001) %MON advcfl_W_hf_max              =   0.0000000000000E+00
(PID.TID 0000.0001) %MON ke_max                       =   7.4455150023606E+02
(PID.TID 0000.0001) %MON ke_mean                      =   4.9661803126781E+02
(PID.TID 0000.0001) %MON ke_volint                    =   2.5323489810542E+22
(PID.TID 0000.0001) %MON ke_volmean                   =   4.9663214534537E+02
(PID.TID 0000.0001) // =======================================================
(PID.TID 0000.0001) // End MONITOR dynamic field statistics
(PID.TID 0000.0001) // =======================================================
(PID.TID 0000.0001) // =======================================================
(PID.TID 0000.0001) // Field Current uVel   at iteration        120
(PID.TID 0000.0001) // CMIN =         -2.664075185753955E+01
(PID.TID 0000.0001) // CMAX =          3.858890972916976E+01
(PID.TID 0000.0001) // CINT =          2.415913392100345E+00
(PID.TID 0000.0001) // SYMBOLS (CMIN->CMAX): -abcdefghijklmnopqrstuvwxyz+
(PID.TID 0000.0001) //                  0.0: .
(PID.TID 0000.0001) // RANGE I (Lo:Hi:Step):(   1: 192:   1)
(PID.TID 0000.0001) // RANGE J (Lo:Hi:Step):(  32:   1:  -1)
(PID.TID 0000.0001) // RANGE K (Lo:Hi:Step):(   1:   1:   1)
(PID.TID 0000.0001) // =======================================================
(PID.TID 0000.0001) K =   1
(PID.TID 0000.0001)                I=10      I=20      I=30      I=40      I=50      I=60      I=70      I=80      I=90      I=100     I=110     I=120     I=130     I=140     I=150     I=160     I=170     I=180     I=190
(PID.TID 0000.0001) |--J--|123456789|123456789|123456789|123456789|123456789|123456789|123456789|123456789|123456789|123456789|123456789|123456789|123456789|123456789|123456789|123456789|123456789|123456789|123456789|12
(PID.TID 0000.0001)     32 xwwwwwwwwwwwwwwwwwwwwwwwwwwwwwwwxwwwwwwwwwwwwwwwwwwwwwwwwwwwwwwwea-----------------------------aeijjkkkkkkkkkkkk.kkkkkkkkkkkkllmeijjkkkkkkkkkkkk.kkkkkkkkkkkkllmquvvvvvvvvvvvvvvvvvvvvvvvvvvvvvu
(PID.TID 0000.0001)     31 xxxxwwwwwwwwwwwwwwwwwwwwwwwwwxxxxxxxwwwwwwwwwwwwwwwwwwwwwwwwwxxxecbaaaaaaaaaaaaaaaaaaaaaaaaaaabcegiijjjjkkkkkkkk.kkkkkkkkllllmmoegiijjjjkkkkkkkk.kkkkkkkkllllmmoqstuuuuuuuuuuuuuuuuuuuuuuuuuuuts
(PID.TID 0000.0001)     30 yxxxxxxxxxxxxxxxxxxxxxxxxxxxxxxxyxxxxxxxxxxxxxxxxxxxxxxxxxxxxxxxedcbbbaaaaaaaaaaaaaaaaaaaaabbbcdeghiijjjjjkkkkkk.kkkkkklllllmmnpeghiijjjjjkkkkkk.kkkkkklllllmmnpqrstttuuuuuuuuuuuuuuuuuuuuutttsr
(PID.TID 0000.0001)     29 yyyyxxxxxxxxxxxxxxxxxxxxxxxxxyyyyyyyxxxxxxxxxxxxxxxxxxxxxxxxxyyyeddccbbbbbbbbbbbbbbbbbbbbbbbccddefghiijjjjjkkkkk.kkkkklllllmmnopefghiijjjjjkkkkk.kkkkklllllmmnopqrssstttttttttttttttttttttttsssr
(PID.TID 0000.0001)     28 yyyyyyyyyyyxxxxxxxxxxxyyyyyyyyyyyyyyyyyyyyyxxxxxxxxxxxyyyyyyyyyyfeddccccccbbbbbbbbbbbbbccccccddeffghiiijjjjjkkkk.kkkklllllmmnnopffghiiijjjjjkkkk.kkkklllllmmnnoppqrrssssstttttttttttttttsssssrrq
(PID.TID 0000.0001)     27 yyyyyyyyyyyyyyyyyyyyyyyyyyyyyyyyyyyyyyyyyyyyyyyyyyyyyyyyyyyyyyyyfeeddddcccccccccccccccccccddddeefgghhiijjjjjkkkk.kkkklllllmmnnoofgghhiijjjjjkkkk.kkkklllllmmnnoopqqrrrsssssssssssssssssssssrrrqq
(PID.TID 0000.0001)     26 zzzzyyyyyyyyyyyyyyyyyyyyyyyyyzzzzzzzyyyyyyyyyyyyyyyyyyyyyyyyyzzzffeeedddddddddddddddddddddddeeeffgghhiijjjjjkkkk.kkklllllmmmnnoofgghhiijjjjjkkkk.kkklllllmmmnnooppqqqrrrrrrrrrrrrrrrrrrrrrrrqqqp
(PID.TID 0000.0001)     25 zzzzzzzzzzzzzzzzzzzzzzzzzzzzzzzzzzzzzzzzzzzzzzzzzzzzzzzzzzzzzzzzgfffeeeeeeeedddddddddeeeeeeeefffgghhiiijjjjjkkkk.kkklllllmmmnnnogghhiiijjjjjkkkk.kkklllllmmmnnnoopppqqqqqqrrrrrrrrrrrrrqqqqqqppp
(PID.TID 0000.0001)     24 zzzzzzzzzzzzzzzzzzzzzzzzzzzzzzzzzzzzzzzzzzzzzzzzzzzzzzzzzzzzzzzzgggfffffeeeeeeeeeeeeeeeeefffffggghhhiiijjjjjkkkk.kkkllllllmmmnnnghhhiiijjjjjkkkk.kkkllllllmmmnnnoopppppqqqqqqqqqqqqqqqqqqqpppppo
(PID.TID 0000.0001)     23 zzzzzzzzzzzzzzzzzzzzzzzzzzzzzzzzzzzzzzzzzzzzzzzzzzzzzzzzzzzzzzzzhggggfffffffffffffffffffffffgggghhhiiiijjjjjkkkk.kkkklllllmmmmnnhhhiiiijjjjjkkkk.kkkklllllmmmmnnnoooopppppppppppppppppppppppoooo
(PID.TID 0000.0001)     22 zzzzzzzzzzzzzzzzzzzzzzzzzzzzzzzzzzzzzzzzzzzzzzzzzzzzzzzzzzzzzzzzhhhhggggggggggggggggggggggggghhhhhiiiijjjjjjkkkk.kkkkllllllmmmmnhhiiiijjjjjjkkkk.kkkkllllllmmmmnnnnooooooooooooooooooooooooooonn
(PID.TID 0000.0001)     21 ++++++++++++++++++++++++++++++++++++++++++++++++++++++++++++++++ihhhhhhhhhhggggggggggghhhhhhhhhhiiiiijjjjjjkkkkk.kkkkkllllllmmmmiiiiijjjjjjkkkkk.kkkkkllllllmmmmmnnnnnnnnnooooooooooooonnnnnnnnn
(PID.TID 0000.0001)     20 ++++++++++++++++++++++++++++++++++++++++++++++++++++++++++++++++iiiiiihhhhhhhhhhhhhhhhhhhhhiiiiiiiijjjjjjjkkkkkk.kkkkkklllllllmmiiijjjjjjjkkkkkk.kkkkkklllllllmmmmmmmmnnnnnnnnnnnnnnnnnnnnnmmmmm
(PID.TID 0000.0001)     19 ++++++++++++++++++++++++++++++++++++++++++++++++++++++++++++++++jjiiiiiiiiiiiiiiiiiiiiiiiiiiiiijjjjjjjjjkkkkkkkk.kkkkkkklllllllljjjjjjjjkkkkkkkk.kkkkkkkllllllllllmmmmmmmmmmmmmmmmmmmmmmmmmmmmml
(PID.TID 0000.0001)     18 ++++++++++++++++++++++++++++++++++++++++++++++++++++++++++++++++jjjjjjjjjjjjjjjjjjjjjjjjjjjjjjjjjjjjjkkkkkkkkkkk.kkkkkkkkkkklllljjjjjkkkkkkkkkkk.kkkkkkkkkkkllllllllllllllllllllllllllllllllllll
(PID.TID 0000.0001)     17 ++++++++++++++++++++++++++++++++++++++++++++++++++++++++++++++++kkkkkkkkkkkkkkkkkkkkkkkkkkkkkkkkkkkkkkkkkkkkkkkk.kkkkkkkkkkkkkkkkkkkkkkkkkkkkkkk.kkkkkkkkkkkkkkkkkkkkkkkkkkkkkkkkkkkkkkkkkkkkkkk
(PID.TID 0000.0001)     16 ++++++++++++++++++++++++++++++++++++++++++++++++++++++++++++++++kkkkkkkkkkkkkkkkkkkkkkkkkkkkkkkkkkkkkkkkkkkkkkkk.kkkkkkkkkkkkkkkkkkkkkkkkkkkkkkk.kkkkkkkkkkkkkkkkkkkkkkkkkkkkkkkkkkkkkkkkkkkkkkk
(PID.TID 0000.0001)     15 ++++++++++++++++++++++++++++++++++++++++++++++++++++++++++++++++lllllllllllllllllllllllllllllllllllllkkkkkkkkkkk.kkkkkkkkkkkjjjjlllllkkkkkkkkkkk.kkkkkkkkkkkjjjjjjjjjjjjjjjjjjjjjjjjjjjjjjjjjjjj
(PID.TID 0000.0001)     14 ++++++++++++++++++++++++++++++++++++++++++++++++++++++++++++++++llmmmmmmmmmmmmmmmmmmmmmmmmmmmmmllllllllllkkkkkkk.kkkkkkkkjjjjjjjlllllllllkkkkkkk.kkkkkkkkjjjjjjjjjiiiiiiiiiiiiiiiiiiiiiiiiiiiiij
(PID.TID 0000.0001)     13 ++++++++++++++++++++++++++++++++++++++++++++++++++++++++++++++++mmmmmmnnnnnnnnnnnnnnnnnnnnnmmmmmmmmlllllllkkkkkk.kkkkkkjjjjjjjiimmmlllllllkkkkkk.kkkkkkjjjjjjjiiiiiiiihhhhhhhhhhhhhhhhhhhhhiiiii
(PID.TID 0000.0001)     12 ++++++++++++++++++++++++++++++++++++++++++++++++++++++++++++++++mnnnnnnnnnooooooooooooonnnnnnnnnmmmmmllllllkkkkk.kkkkkjjjjjjiiiimmmmmllllllkkkkk.kkkkkjjjjjjiiiiihhhhhhhhhhggggggggggghhhhhhhhhh
(PID.TID 0000.0001)     11 zzzzzzzzzzzzzzzzzzzzzzzzzzzzzzzzzzzzzzzzzzzzzzzzzzzzzzzzzzzzzzzznnnooooooooooooooooooooooooooonnnnmmmmllllllkkkk.kkkkjjjjjjiiiihnnmmmmllllllkkkk.kkkkjjjjjjiiiihhhhhggggggggggggggggggggggggghhh
(PID.TID 0000.0001)     10 zzzzzzzzzzzzzzzzzzzzzzzzzzzzzzzzzzzzzzzzzzzzzzzzzzzzzzzzzzzzzzzznoooopppppppppppppppppppppppoooonnnmmmmlllllkkkk.kkkkjjjjjiiiihhnnnmmmmlllllkkkk.kkkkjjjjjiiiihhhggggfffffffffffffffffffffffgggg
(PID.TID 0000.0001)      9 zzzzzzzzzzzzzzzzzzzzzzzzzzzzzzzzzzzzzzzzzzzzzzzzzzzzzzzzzzzzzzzzoopppppqqqqqqqqqqqqqqqqqqqpppppoonnnmmmllllllkkk.kkkkjjjjjiiihhhonnnmmmllllllkkk.kkkkjjjjjiiihhhgggfffffeeeeeeeeeeeeeeeeefffffgg
(PID.TID 0000.0001)      8 zzzzzzzzzzzzzzzzzzzzzzzzzzzzzzzzzzzzzzzzzzzzzzzzzzzzzzzzzzzzzzzzopppqqqqqqrrrrrrrrrrrrrqqqqqqpppoonnnmmmlllllkkk.kkkkjjjjjiiihhgoonnnmmmlllllkkk.kkkkjjjjjiiihhggfffeeeeeeeedddddddddeeeeeeeefff
(PID.TID 0000.0001)      7 zzzzyyyyyyyyyyyyyyyyyyyyyyyyyzzzzzzzyyyyyyyyyyyyyyyyyyyyyyyyyzzzppqqqrrrrrrrrrrrrrrrrrrrrrrrqqqppoonnmmmlllllkkk.kkkkjjjjjiihhggpoonnmmmlllllkkk.kkkkjjjjjiihhggffeeedddddddddddddddddddddddeeef
(PID.TID 0000.0001)      6 yyyyyyyyyyyyyyyyyyyyyyyyyyyyyyyyyyyyyyyyyyyyyyyyyyyyyyyyyyyyyyyypqqrrrsssssssssssssssssssssrrrqqpoonnmmlllllkkkk.kkkkjjjjjiihhggpoonnmmlllllkkkk.kkkkjjjjjiihhggfeeddddcccccccccccccccccccddddee
(PID.TID 0000.0001)      5 yyyyyyyyyyyxxxxxxxxxxxyyyyyyyyyyyyyyyyyyyyyxxxxxxxxxxxyyyyyyyyyypqrrssssstttttttttttttttsssssrrqpponnmmlllllkkkk.kkkkjjjjjiiihgfpponnmmlllllkkkk.kkkkjjjjjiiihgffeddccccccbbbbbbbbbbbbbccccccdde
(PID.TID 0000.0001)      4 yyyyxxxxxxxxxxxxxxxxxxxxxxxxxyyyyyyyxxxxxxxxxxxxxxxxxxxxxxxxxyyyqrssstttttttttttttttttttttttsssrqponmmlllllkkkkk.kkkkkjjjjjiihgfqponmmlllllkkkkk.kkkkkjjjjjiihgfeddccbbbbbbbbbbbbbbbbbbbbbbbccdd
(PID.TID 0000.0001)      3 yxxxxxxxxxxxxxxxxxxxxxxxxxxxxxxxyxxxxxxxxxxxxxxxxxxxxxxxxxxxxxxxqrstttuuuuuuuuuuuuuuuuuuuuutttsrqpnmmlllllkkkkkk.kkkkkkjjjjjiihgqpnmmlllllkkkkkk.kkkkkkjjjjjiihgedcbbbaaaaaaaaaaaaaaaaaaaaabbbcd
(PID.TID 0000.0001)      2 xxxxwwwwwwwwwwwwwwwwwwwwwwwwwxxxxxxxwwwwwwwwwwwwwwwwwwwwwwwwwxxxqstuuuuuuuuuuuuuuuuuuuuuuuuuuutsqommllllkkkkkkkk.kkkkkkkkjjjjiigqommllllkkkkkkkk.kkkkkkkkjjjjiigecbaaaaaaaaaaaaaaaaaaaaaaaaaaabc
(PID.TID 0000.0001)      1 xwwwwwwwwwwwwwwwwwwwwwwwwwwwwwwwxwwwwwwwwwwwwwwwwwwwwwwwwwwwwwwwquvvvvvvvvvvvvvvvvvvvvvvvvvvvvvuqmllkkkkkkkkkkkk.kkkkkkkkkkkkjjiqmllkkkkkkkkkkkk.kkkkkkkkkkkkjjiea-----------------------------a
(PID.TID 0000.0001) // =======================================================
(PID.TID 0000.0001) // END OF FIELD                                          =
(PID.TID 0000.0001) // =======================================================
(PID.TID 0000.0001) 
(PID.TID 0000.0001) // =======================================================
(PID.TID 0000.0001) // Field Current vVel   at iteration        120
(PID.TID 0000.0001) // CMIN =         -2.664075185753955E+01
(PID.TID 0000.0001) // CMAX =          3.858890972916976E+01
(PID.TID 0000.0001) // CINT =          2.415913392100345E+00
(PID.TID 0000.0001) // SYMBOLS (CMIN->CMAX): -abcdefghijklmnopqrstuvwxyz+
(PID.TID 0000.0001) //                  0.0: .
(PID.TID 0000.0001) // RANGE I (Lo:Hi:Step):(   1: 192:   1)
(PID.TID 0000.0001) // RANGE J (Lo:Hi:Step):(  32:   1:  -1)
(PID.TID 0000.0001) // RANGE K (Lo:Hi:Step):(   1:   1:   1)
(PID.TID 0000.0001) // =======================================================
(PID.TID 0000.0001) K =   1
(PID.TID 0000.0001)                I=10      I=20      I=30      I=40      I=50      I=60      I=70      I=80      I=90      I=100     I=110     I=120     I=130     I=140     I=150     I=160     I=170     I=180     I=190
(PID.TID 0000.0001) |--J--|123456789|123456789|123456789|123456789|123456789|123456789|123456789|123456789|123456789|123456789|123456789|123456789|123456789|123456789|123456789|123456789|123456789|123456789|123456789|12
(PID.TID 0000.0001)     32 iggffggghhhiijjkkllmmnnnooopppomiggffggghhhiijjkkllmmnnnooopppomacddeeffgghhijjkkllmnnooppqqrrsuwxxyyyzzzzz++++++++++zzzzzyyyxxwwxxyyyzzzzz++++++++++zzzzzyyyxxwusrrqqppoonnmllkkjjihhggffeeddca
(PID.TID 0000.0001)     31 jihgggghhhiiijjkkllmmmnnnoooonmljihgggghhhiiijjkkllmmmnnnoooonml-bcddeefgghhiijkklmmnnoppqqrsstvwxxyyyzzzzz++++++++++zzzzzyyyxxwwxxyyyzzzzz++++++++++zzzzzyyyxxwvtssrqqpponnmmlkkjiihhggfeeddcb-
(PID.TID 0000.0001)     30 jiihhhhhhiiijjjkklllmmmnnnnnnmmljiihhhhhhiiijjjkklllmmmnnnnnnmml-abcddeffghhiijkklmmnooppqrrstuvwxxyyyzzzzz++++++++++zzzzzyyyxxwwxxyyyzzzzz++++++++++zzzzzyyyxxwvutsrrqppoonmmlkkjiihhgffeddcba-
(PID.TID 0000.0001)     29 kjiiihhiiiiijjjkklllmmmmnnnnmmlkkjiiihhiiiiijjjkklllmmmmnnnnmmlk-abccdeefgghiijkklmmnoopqqrsstuvwwxxyyyzzzz++++++++++zzzzyyyxxwwwwxxyyyzzzz++++++++++zzzzyyyxxwwvutssrqqpoonmmlkkjiihggfeedccba-
(PID.TID 0000.0001)     28 kjjiiiiiiiijjjkkkklllmmmmmmmmllkkjjiiiiiiiijjjkkkklllmmmmmmmmllk-abbcddeffghiijkklmmnoppqrrsttuvwwxxyyyzzzz++++++++++zzzzyyyxxwwwwxxyyyzzzz++++++++++zzzzyyyxxwwvuttsrrqpponmmlkkjiihgffeddcbba-
(PID.TID 0000.0001)     27 kjjjiiiiiijjjjkkkkllllmmmmmmlllkkjjjiiiiiijjjjkkkkllllmmmmmmlllk-aabcddeffghhijkklmnnoppqrsstuuvwwxxyyyzzzz++++++++++zzzzyyyxxwwwwxxyyyzzzz++++++++++zzzzyyyxxwwvuutssrqpponnmlkkjihhgffeddcbaa-
(PID.TID 0000.0001)     26 kjjjjjjjjjjjjjkkkkllllllmmlllllkkjjjjjjjjjjjjjkkkkllllllmmlllllk-aabccdeffghhijkklmnnopqqrsstuuvwwxxyyyzzzz++++++++++zzzzyyyxxwwwwxxyyyzzzz++++++++++zzzzyyyxxwwvuutssrqqponnmlkkjihhgffedccbaa-
(PID.TID 0000.0001)     25 kkjjjjjjjjjjjkkkkkllllllllllllkkkkjjjjjjjjjjjkkkkkllllllllllllkk-aabccdeefghhijkklmnnopqqrsstuuvwwxxyyyzzzz++++++++++zzzzyyyxxwwwwxxyyyzzzz++++++++++zzzzyyyxxwwvuutssrqqponnmlkkjihhgfeedccbaa-
(PID.TID 0000.0001)     24 kkjjjjjjjjjjjkkkkkklllllllllllkkkkjjjjjjjjjjjkkkkkklllllllllllkk-aabccdeefghhijkklmnnopqqrsttuuvwwxxyyyzzzz++++++++++zzzzyyyxxwwwwxxyyyzzzz++++++++++zzzzyyyxxwwvuuttsrqqponnmlkkjihhgfeedccbaa-
(PID.TID 0000.0001)     23 kkkjjjjjjjjjkkkkkkkklllllllllkkkkkkjjjjjjjjjkkkkkkkklllllllllkkk-aabbcdeefghhijkklmnoopqrrsttuuvwwxxyyyzzzz++++++++++zzzzyyyxxwwwwxxyyyzzzz++++++++++zzzzyyyxxwwvuuttsrrqpoonmlkkjihhgfeedcbbaa-
(PID.TID 0000.0001)     22 kkkkjjjjjjjkkkkkkkkkklllllllkkkkkkkkjjjjjjjkkkkkkkkkklllllllkkkk-aabbcdeefgghijkklmnoopqrrsttuuvwwxxxyyzzzz++++++++++zzzzyyxxxwwwwxxxyyzzzz++++++++++zzzzyyxxxwwvuuttsrrqpoonmlkkjihggfeedcbbaa-
(PID.TID 0000.0001)     21 kkkkkkkkkkkkkkkkkkkkkkklllkkkkkkkkkkkkkkkkkkkkkkkkkkkkklllkkkkkk-aabbcddefgghijkklmnoopqrrsttuuvwwxxxyyzzzz++++++++++zzzzyyxxxwwwwxxxyyzzzz++++++++++zzzzyyxxxwwvuuttsrrqpoonmlkkjihggfeddcbbaa-
(PID.TID 0000.0001)     20 kkkkkkkkkkkkkkkkkkkkkkkkkkkkkkkkkkkkkkkkkkkkkkkkkkkkkkkkkkkkkkkk-aabbcddefgghijkklmnoopqrrsttuuvwwxxxyyzzzz++++++++++zzzzyyxxxwwwwxxxyyzzzz++++++++++zzzzyyxxxwwvuuttsrrqpoonmlkkjihggfeddcbbaa-
(PID.TID 0000.0001)     19 kkkkkkkkkkkkkkkkkkkkkkkkkkkkkkkkkkkkkkkkkkkkkkkkkkkkkkkkkkkkkkkk-aabbcddefgghijkklmnoopqrrsttuuvwwxxxyyzzzz++++++++++zzzzyyxxxwwwwxxxyyzzzz++++++++++zzzzyyxxxwwvuuttsrrqpoonmlkkjihggfeddcbbaa-
(PID.TID 0000.0001)     18 kkkkkkkkkkkkkkkkkkkkkkkkkkkkkkkkkkkkkkkkkkkkkkkkkkkkkkkkkkkkkkkk-aabbcddefgghijkklmnoopqrrsttuuvwwxxxyyzzzz++++++++++zzzzyyxxxwwwwxxxyyzzzz++++++++++zzzzyyxxxwwvuuttsrrqpoonmlkkjihggfeddcbbaa-
(PID.TID 0000.0001)     17 ................................................................-aabbcddefgghijkklmnoopqrrsttuuvwwxxxyyzzzz++++++++++zzzzyyxxxwwwwxxxyyzzzz++++++++++zzzzyyxxxwwvuuttsrrqpoonmlkkjihggfeddcbbaa-
(PID.TID 0000.0001)     16 kkkkkkkkkkkkkkkkkkkkkkkkkkkkkkkkkkkkkkkkkkkkkkkkkkkkkkkkkkkkkkkk-aabbcddefgghijkklmnoopqrrsttuuvwwxxxyyzzzz++++++++++zzzzyyxxxwwwwxxxyyzzzz++++++++++zzzzyyxxxwwvuuttsrrqpoonmlkkjihggfeddcbbaa-
(PID.TID 0000.0001)     15 kkkkkkkkkkkkkkkkkkkkkkkkkkkkkkkkkkkkkkkkkkkkkkkkkkkkkkkkkkkkkkkk-aabbcddefgghijkklmnoopqrrsttuuvwwxxxyyzzzz++++++++++zzzzyyxxxwwwwxxxyyzzzz++++++++++zzzzyyxxxwwvuuttsrrqpoonmlkkjihggfeddcbbaa-
(PID.TID 0000.0001)     14 kkkkkkkkkkkkkkkkkkkkkkkkkkkkkkkkkkkkkkkkkkkkkkkkkkkkkkkkkkkkkkkk-aabbcddefgghijkklmnoopqrrsttuuvwwxxxyyzzzz++++++++++zzzzyyxxxwwwwxxxyyzzzz++++++++++zzzzyyxxxwwvuuttsrrqpoonmlkkjihggfeddcbbaa-
(PID.TID 0000.0001)     13 kkkkkklllkkkkkkkkkkkkkkkkkkkkkkkkkkkkklllkkkkkkkkkkkkkkkkkkkkkkk-aabbcddefgghijkklmnoopqrrsttuuvwwxxxyyzzzz++++++++++zzzzyyxxxwwwwxxxyyzzzz++++++++++zzzzyyxxxwwvuuttsrrqpoonmlkkjihggfeddcbbaa-
(PID.TID 0000.0001)     12 kkkklllllllkkkkkkkkkkjjjjjjjkkkkkkkklllllllkkkkkkkkkkjjjjjjjkkkk-aabbcdeefgghijkklmnoopqrrsttuuvwwxxxyyzzzz++++++++++zzzzyyxxxwwwwxxxyyzzzz++++++++++zzzzyyxxxwwvuuttsrrqpoonmlkkjihggfeedcbbaa-
(PID.TID 0000.0001)     11 kkklllllllllkkkkkkkkjjjjjjjjjkkkkkklllllllllkkkkkkkkjjjjjjjjjkkk-aabbcdeefghhijkklmnoopqrrsttuuvwwxxyyyzzzz++++++++++zzzzyyyxxwwwwxxyyyzzzz++++++++++zzzzyyyxxwwvuuttsrrqpoonmlkkjihhgfeedcbbaa-
(PID.TID 0000.0001)     10 kklllllllllllkkkkkkjjjjjjjjjjjkkkklllllllllllkkkkkkjjjjjjjjjjjkk-aabccdeefghhijkklmnnopqqrsttuuvwwxxyyyzzzz++++++++++zzzzyyyxxwwwwxxyyyzzzz++++++++++zzzzyyyxxwwvuuttsrqqponnmlkkjihhgfeedccbaa-
(PID.TID 0000.0001)      9 kkllllllllllllkkkkkjjjjjjjjjjjkkkkllllllllllllkkkkkjjjjjjjjjjjkk-aabccdeefghhijkklmnnopqqrsstuuvwwxxyyyzzzz++++++++++zzzzyyyxxwwwwxxyyyzzzz++++++++++zzzzyyyxxwwvuutssrqqponnmlkkjihhgfeedccbaa-
(PID.TID 0000.0001)      8 klllllmmllllllkkkkjjjjjjjjjjjjjkklllllmmllllllkkkkjjjjjjjjjjjjjk-aabccdeffghhijkklmnnopqqrsstuuvwwxxyyyzzzz++++++++++zzzzyyyxxwwwwxxyyyzzzz++++++++++zzzzyyyxxwwvuutssrqqponnmlkkjihhgffedccbaa-
(PID.TID 0000.0001)      7 klllmmmmmmllllkkkkjjjjiiiiiijjjkklllmmmmmmllllkkkkjjjjiiiiiijjjk-aabcddeffghhijkklmnnoppqrsstuuvwwxxyyyzzzz++++++++++zzzzyyyxxwwwwxxyyyzzzz++++++++++zzzzyyyxxwwvuutssrqpponnmlkkjihhgffeddcbaa-
(PID.TID 0000.0001)      6 kllmmmmmmmmlllkkkkjjjiiiiiiiijjkkllmmmmmmmmlllkkkkjjjiiiiiiiijjk-abbcddeffghiijkklmmnoppqrrsttuvwwxxyyyzzzz++++++++++zzzzyyyxxwwwwxxyyyzzzz++++++++++zzzzyyyxxwwvuttsrrqpponmmlkkjiihgffeddcbba-
(PID.TID 0000.0001)      5 klmmnnnnmmmmlllkkjjjiiiiihhiiijkklmmnnnnmmmmlllkkjjjiiiiihhiiijk-abccdeefgghiijkklmmnoopqqrsstuvwwxxyyyzzzz++++++++++zzzzyyyxxwwwwxxyyyzzzz++++++++++zzzzyyyxxwwvutssrqqpoonmmlkkjiihggfeedccba-
(PID.TID 0000.0001)      4 lmmnnnnnnmmmlllkkjjjiiihhhhhhiijlmmnnnnnnmmmlllkkjjjiiihhhhhhiij-abcddeffghhiijkklmmnooppqrrstuvwxxyyyzzzzz++++++++++zzzzzyyyxxwwxxyyyzzzzz++++++++++zzzzzyyyxxwvutsrrqppoonmmlkkjiihhgffeddcba-
(PID.TID 0000.0001)      3 lmnoooonnnmmmllkkjjiiihhhgggghijlmnoooonnnmmmllkkjjiiihhhgggghij-bcddeefgghhiijkklmmnnoppqqrsstvwxxyyyzzzzz++++++++++zzzzzyyyxxwwxxyyyzzzzz++++++++++zzzzzyyyxxwvtssrqqpponnmmlkkjiihhggfeeddcb-
(PID.TID 0000.0001)      2 mopppooonnnmmllkkjjiihhhgggffggimopppooonnnmmllkkjjiihhhgggffggiacddeeffgghhijjkkllmnnooppqqrrsuwxxyyyzzzzz++++++++++zzzzzyyyxxwwxxyyyzzzzz++++++++++zzzzzyyyxxwusrrqqppoonnmllkkjjihhggffeeddca
(PID.TID 0000.0001)      1 qqqqpppoonnmmllkkjjiihhggfffeeeeqqqqpppoonnmmllkkjjiihhggfffeeeeeeeefffgghhiijjkkllmmnnoopppqqqqxxyyyyzzzzz++++++++++zzzzzyyyyxxxxyyyyzzzzz++++++++++zzzzzyyyyxxqqqqpppoonnmmllkkjjiihhggfffeeee
(PID.TID 0000.0001) // =======================================================
(PID.TID 0000.0001) // END OF FIELD                                          =
(PID.TID 0000.0001) // =======================================================
(PID.TID 0000.0001) 
(PID.TID 0000.0001) // =======================================================
(PID.TID 0000.0001) // Field Current theta  at iteration        120
(PID.TID 0000.0001) // CMIN =          9.999513616364832E-01
(PID.TID 0000.0001) // CMAX =          1.859246904987887E+00
(PID.TID 0000.0001) // CINT =          3.182576086486683E-02
(PID.TID 0000.0001) // SYMBOLS (CMIN->CMAX): -abcdefghijklmnopqrstuvwxyz+
(PID.TID 0000.0001) //                  0.0: .
(PID.TID 0000.0001) // RANGE I (Lo:Hi:Step):(   1: 192:   1)
(PID.TID 0000.0001) // RANGE J (Lo:Hi:Step):(  32:   1:  -1)
(PID.TID 0000.0001) // RANGE K (Lo:Hi:Step):(   1:   1:   1)
(PID.TID 0000.0001) // =======================================================
(PID.TID 0000.0001) K =   1
(PID.TID 0000.0001)                I=10      I=20      I=30      I=40      I=50      I=60      I=70      I=80      I=90      I=100     I=110     I=120     I=130     I=140     I=150     I=160     I=170     I=180     I=190
(PID.TID 0000.0001) |--J--|123456789|123456789|123456789|123456789|123456789|123456789|123456789|123456789|123456789|123456789|123456789|123456789|123456789|123456789|123456789|123456789|123456789|123456789|123456789|12
(PID.TID 0000.0001)     32 -------------------------------------------------------------------------------------------------------------aabbaa-----------------------------------------------------------------------------
(PID.TID 0000.0001)     31 ------------------------------------------------------------------------------------------------------------------------------------------------------------------------------------------------
(PID.TID 0000.0001)     30 ------------------------------------------------------------------------------------------------------------------------------------------------------------------------------------------------
(PID.TID 0000.0001)     29 ------------------------------------------------------------------------------------------------------------------------------------------------------------------------------------------------
(PID.TID 0000.0001)     28 ------------------------------------------------------------------------------------------------------------------------------------------------------------------------------------------------
(PID.TID 0000.0001)     27 ------------------------------------------------------------------------------------------------------------------------------------------------------------------------------------------------
(PID.TID 0000.0001)     26 ------------------------------------------------------------------------------------------------------------------------------------------------------------------------------------------------
(PID.TID 0000.0001)     25 ------------------------------------------------------------------------------------------------------------------------------------------------------------------------------------------------
(PID.TID 0000.0001)     24 ------------------------------------------------------------------------------------------------------------------------------------------------------------------------------------------------
(PID.TID 0000.0001)     23 ------------------------------------------------------------------------------------------------------------------------------------------------------------------------------------------------
(PID.TID 0000.0001)     22 ------------------------------------------------------------------------------------------------------------------------------------------------------------------------------------------------
(PID.TID 0000.0001)     21 ------------------------------------------------------------------------------------------------------------------------------------------------------------------------------------------------
(PID.TID 0000.0001)     20 ------------------------------------------------------------------------------------------------------------------------------------------------------------------------------------------------
(PID.TID 0000.0001)     19 ------------------------------------------------------------------------------------------------------------------------------------------------------------------------------------------------
(PID.TID 0000.0001)     18 ------------------------------------------------------------------------------------------------------------------------------------------------------------------------------------------------
(PID.TID 0000.0001)     17 ------------------------------------------------------------------------------------------------------------------------------------------------------------------------------------------------
(PID.TID 0000.0001)     16 ------------------------------------------------------------------------------------------------------------------------------------------------------------------------------------------------
(PID.TID 0000.0001)     15 ------------------------------------------------------------------------------------------------------------------------------------------------------------------------------------------------
(PID.TID 0000.0001)     14 ------------------------------------------------------------------------------------------------------------------------------------------------------------------------------------------------
(PID.TID 0000.0001)     13 ------------------------------------------------------------------------------------------------------------------------------------------------------------------------------------------------
(PID.TID 0000.0001)     12 ----------------------------------------------------------------------------------------------------------------------------------------------aaaa----------------------------------------------
(PID.TID 0000.0001)     11 --------------------------------------------------------------------------------------------------------------------------------------------abddddba--------------------------------------------
(PID.TID 0000.0001)     10 -------------------------------------------------------------------------------------------------------------------------------------------acfhjjhfca-------------------------------------------
(PID.TID 0000.0001)      9 -------------------------------------------------------------------------------------------------------------------------------------------bejnppnjeb-------------------------------------------
(PID.TID 0000.0001)      8 -------------------------------------------------------------------------------------------------------------------------------------------chnsvvsnhc-------------------------------------------
(PID.TID 0000.0001)      7 ------------------------------------------------------------------------------------------------------------------------------------------adjqwzzwqjda------------------------------------------
(PID.TID 0000.0001)      6 ------------------------------------------------------------------------------------------------------------------------------------------adjqx++xqjda------------------------------------------
(PID.TID 0000.0001)      5 ------------------------------------------------------------------------------------------------------------------------------------------adjqwzzwqjda------------------------------------------
(PID.TID 0000.0001)      4 ------------------------------------------------------------------------------------------------------------------------------------------adintwwtnida------------------------------------------
(PID.TID 0000.0001)      3 -------------------------------------------------------------------------------------------------------------------------------------------cfkoqqokfc-------------------------------------------
(PID.TID 0000.0001)      2 -------------------------------------------------------------------------------------------------------------------------------------------acfikkifca-------------------------------------------
(PID.TID 0000.0001)      1 --------------------------------------------------------------------------------------------------------------------------------------------acdeedca--------------------------------------------
(PID.TID 0000.0001) // =======================================================
(PID.TID 0000.0001) // END OF FIELD                                          =
(PID.TID 0000.0001) // =======================================================
(PID.TID 0000.0001) 
(PID.TID 0000.0001) // =======================================================
(PID.TID 0000.0001) // Field Current etaN   at iteration        120
(PID.TID 0000.0001) // CMIN =          1.000000000000000E+32
(PID.TID 0000.0001) // CMAX =         -1.000000000000000E+32
(PID.TID 0000.0001) // CINT =          0.000000000000000E+00
(PID.TID 0000.0001) // SYMBOLS (CMIN->CMAX): -abcdefghijklmnopqrstuvwxyz+
(PID.TID 0000.0001) //                  0.0: .
(PID.TID 0000.0001) // RANGE I (Lo:Hi:Step):(  -2: 195:   1)
(PID.TID 0000.0001) // RANGE J (Lo:Hi:Step):(  35:  -2:  -1)
(PID.TID 0000.0001) // RANGE K (Lo:Hi:Step):(   1:   1:   1)
(PID.TID 0000.0001) // =======================================================
(PID.TID 0000.0001) K =   1
(PID.TID 0000.0001)                I=7       I=17      I=27      I=31      I=41      I=51      I=61      I=65      I=75      I=85      I=95      I=99      I=109     I=119     I=129     I=133     I=143     I=153     I=163     I=167     I=177     I=187
(PID.TID 0000.0001) |--J--|**0123456|890123456|890123456|890123450|234567890|234567890|234567890|234567234|678901234|678901234|678901234|678945678|012345678|012345678|012345678|016789012|456789012|456789012|456789012|890123456|890123456|890123456|89012345
(PID.TID 0000.0001)     35 ....................................................................................................................................................................................................................................
(PID.TID 0000.0001)     34 ....................................................................................................................................................................................................................................
(PID.TID 0000.0001)     33 ....................................................................................................................................................................................................................................
(PID.TID 0000.0001)     32 ....................................................................................................................................................................................................................................
(PID.TID 0000.0001)     31 ....................................................................................................................................................................................................................................
(PID.TID 0000.0001)     30 ....................................................................................................................................................................................................................................
(PID.TID 0000.0001)     29 ....................................................................................................................................................................................................................................
(PID.TID 0000.0001)     28 ....................................................................................................................................................................................................................................
(PID.TID 0000.0001)     27 ....................................................................................................................................................................................................................................
(PID.TID 0000.0001)     26 ....................................................................................................................................................................................................................................
(PID.TID 0000.0001)     25 ....................................................................................................................................................................................................................................
(PID.TID 0000.0001)     24 ....................................................................................................................................................................................................................................
(PID.TID 0000.0001)     23 ....................................................................................................................................................................................................................................
(PID.TID 0000.0001)     22 ....................................................................................................................................................................................................................................
(PID.TID 0000.0001)     21 ....................................................................................................................................................................................................................................
(PID.TID 0000.0001)     20 ....................................................................................................................................................................................................................................
(PID.TID 0000.0001)     19 ....................................................................................................................................................................................................................................
(PID.TID 0000.0001)     18 ....................................................................................................................................................................................................................................
(PID.TID 0000.0001)     17 ....................................................................................................................................................................................................................................
(PID.TID 0000.0001)     16 ....................................................................................................................................................................................................................................
(PID.TID 0000.0001)     15 ....................................................................................................................................................................................................................................
(PID.TID 0000.0001)     14 ....................................................................................................................................................................................................................................
(PID.TID 0000.0001)     13 ....................................................................................................................................................................................................................................
(PID.TID 0000.0001)     12 ....................................................................................................................................................................................................................................
(PID.TID 0000.0001)     11 ....................................................................................................................................................................................................................................
(PID.TID 0000.0001)     10 ....................................................................................................................................................................................................................................
(PID.TID 0000.0001)      9 ....................................................................................................................................................................................................................................
(PID.TID 0000.0001)      8 ....................................................................................................................................................................................................................................
(PID.TID 0000.0001)      7 ....................................................................................................................................................................................................................................
(PID.TID 0000.0001)      6 ....................................................................................................................................................................................................................................
(PID.TID 0000.0001)      5 ....................................................................................................................................................................................................................................
(PID.TID 0000.0001)      4 ....................................................................................................................................................................................................................................
(PID.TID 0000.0001)      3 ....................................................................................................................................................................................................................................
(PID.TID 0000.0001)      2 ....................................................................................................................................................................................................................................
(PID.TID 0000.0001)      1 ....................................................................................................................................................................................................................................
(PID.TID 0000.0001)      0 ....................................................................................................................................................................................................................................
(PID.TID 0000.0001)     -1 ....................................................................................................................................................................................................................................
(PID.TID 0000.0001)     -2 ....................................................................................................................................................................................................................................
(PID.TID 0000.0001) // =======================================================
(PID.TID 0000.0001) // END OF FIELD                                          =
(PID.TID 0000.0001) // =======================================================
(PID.TID 0000.0001) 
(PID.TID 0000.0001) // =======================================================
(PID.TID 0000.0001) // Begin MONITOR dynamic field statistics
(PID.TID 0000.0001) // =======================================================
(PID.TID 0000.0001) %MON time_tsnumber                =                   126
(PID.TID 0000.0001) %MON time_secondsf                =   4.5360000000000E+05
(PID.TID 0000.0001) %MON time_secondsi                =                453600
(PID.TID 0000.0001) %MON dynstat_eta_max              =   0.0000000000000E+00
(PID.TID 0000.0001) %MON dynstat_eta_min              =   0.0000000000000E+00
(PID.TID 0000.0001) %MON dynstat_eta_mean             =   0.0000000000000E+00
(PID.TID 0000.0001) %MON dynstat_eta_sd               =   0.0000000000000E+00
(PID.TID 0000.0001) %MON dynstat_eta_del2             =   0.0000000000000E+00
(PID.TID 0000.0001) %MON dynstat_uvel_max             =   3.8588909729170E+01
(PID.TID 0000.0001) %MON dynstat_uvel_min             =  -2.6640751857540E+01
(PID.TID 0000.0001) %MON dynstat_uvel_mean            =   1.1767582051515E+01
(PID.TID 0000.0001) %MON dynstat_uvel_sd              =   1.8925013763619E+01
(PID.TID 0000.0001) %MON dynstat_uvel_del2            =   3.3977035061841E-02
(PID.TID 0000.0001) %MON dynstat_vvel_max             =   3.8588909729170E+01
(PID.TID 0000.0001) %MON dynstat_vvel_min             =  -2.6640751857540E+01
(PID.TID 0000.0001) %MON dynstat_vvel_mean            =   1.1767582051515E+01
(PID.TID 0000.0001) %MON dynstat_vvel_sd              =   1.8925013763619E+01
(PID.TID 0000.0001) %MON dynstat_vvel_del2            =   3.3977035061841E-02
(PID.TID 0000.0001) %MON dynstat_wvel_max             =   4.8259469367879E-15
(PID.TID 0000.0001) %MON dynstat_wvel_min             =  -4.8259469367879E-15
(PID.TID 0000.0001) %MON dynstat_wvel_mean            =  -2.6408038640800E-34
(PID.TID 0000.0001) %MON dynstat_wvel_sd              =   1.3451301434752E-15
(PID.TID 0000.0001) %MON dynstat_wvel_del2            =   1.3733452540939E-15
(PID.TID 0000.0001) %MON dynstat_theta_max            =   1.8562265912348E+00
(PID.TID 0000.0001) %MON dynstat_theta_min            =   9.9994958376352E-01
(PID.TID 0000.0001) %MON dynstat_theta_mean           =   1.0066874826115E+00
(PID.TID 0000.0001) %MON dynstat_theta_sd             =   5.7868780529564E-02
(PID.TID 0000.0001) %MON dynstat_theta_del2           =   3.9311216765052E-04
(PID.TID 0000.0001) %MON dynstat_salt_max             =   1.8880892702283E+00
(PID.TID 0000.0001) %MON dynstat_salt_min             =   9.9986340280677E-01
(PID.TID 0000.0001) %MON dynstat_salt_mean            =   1.0068599221104E+00
(PID.TID 0000.0001) %MON dynstat_salt_sd              =   5.9919379275364E-02
(PID.TID 0000.0001) %MON dynstat_salt_del2            =   4.2047945331246E-04
(PID.TID 0000.0001) %MON advcfl_uvel_max              =   1.0218201555446E+00
(PID.TID 0000.0001) %MON advcfl_vvel_max              =   1.0218201555446E+00
(PID.TID 0000.0001) %MON advcfl_wvel_max              =   3.4746817944873E-16
(PID.TID 0000.0001) %MON advcfl_W_hf_max              =   0.0000000000000E+00
(PID.TID 0000.0001) %MON ke_max                       =   7.4455150023606E+02
(PID.TID 0000.0001) %MON ke_mean                      =   4.9661803126781E+02
(PID.TID 0000.0001) %MON ke_volint                    =   2.5323489810542E+22
(PID.TID 0000.0001) %MON ke_volmean                   =   4.9663214534537E+02
(PID.TID 0000.0001) // =======================================================
(PID.TID 0000.0001) // End MONITOR dynamic field statistics
(PID.TID 0000.0001) // =======================================================
(PID.TID 0000.0001) // =======================================================
(PID.TID 0000.0001) // Begin MONITOR dynamic field statistics
(PID.TID 0000.0001) // =======================================================
(PID.TID 0000.0001) %MON time_tsnumber                =                   132
(PID.TID 0000.0001) %MON time_secondsf                =   4.7520000000000E+05
(PID.TID 0000.0001) %MON time_secondsi                =                475200
(PID.TID 0000.0001) %MON dynstat_eta_max              =   0.0000000000000E+00
(PID.TID 0000.0001) %MON dynstat_eta_min              =   0.0000000000000E+00
(PID.TID 0000.0001) %MON dynstat_eta_mean             =   0.0000000000000E+00
(PID.TID 0000.0001) %MON dynstat_eta_sd               =   0.0000000000000E+00
(PID.TID 0000.0001) %MON dynstat_eta_del2             =   0.0000000000000E+00
(PID.TID 0000.0001) %MON dynstat_uvel_max             =   3.8588909729170E+01
(PID.TID 0000.0001) %MON dynstat_uvel_min             =  -2.6640751857540E+01
(PID.TID 0000.0001) %MON dynstat_uvel_mean            =   1.1767582051515E+01
(PID.TID 0000.0001) %MON dynstat_uvel_sd              =   1.8925013763619E+01
(PID.TID 0000.0001) %MON dynstat_uvel_del2            =   3.3977035061841E-02
(PID.TID 0000.0001) %MON dynstat_vvel_max             =   3.8588909729170E+01
(PID.TID 0000.0001) %MON dynstat_vvel_min             =  -2.6640751857540E+01
(PID.TID 0000.0001) %MON dynstat_vvel_mean            =   1.1767582051515E+01
(PID.TID 0000.0001) %MON dynstat_vvel_sd              =   1.8925013763619E+01
(PID.TID 0000.0001) %MON dynstat_vvel_del2            =   3.3977035061841E-02
(PID.TID 0000.0001) %MON dynstat_wvel_max             =   4.8259469367879E-15
(PID.TID 0000.0001) %MON dynstat_wvel_min             =  -4.8259469367879E-15
(PID.TID 0000.0001) %MON dynstat_wvel_mean            =  -2.6408038640800E-34
(PID.TID 0000.0001) %MON dynstat_wvel_sd              =   1.3451301434752E-15
(PID.TID 0000.0001) %MON dynstat_wvel_del2            =   1.3733452540939E-15
(PID.TID 0000.0001) %MON dynstat_theta_max            =   1.8499332508716E+00
(PID.TID 0000.0001) %MON dynstat_theta_min            =   9.9990877380657E-01
(PID.TID 0000.0001) %MON dynstat_theta_mean           =   1.0066874826115E+00
(PID.TID 0000.0001) %MON dynstat_theta_sd             =   5.7722089148541E-02
(PID.TID 0000.0001) %MON dynstat_theta_del2           =   3.9209181260843E-04
(PID.TID 0000.0001) %MON dynstat_salt_max             =   1.8851011107352E+00
(PID.TID 0000.0001) %MON dynstat_salt_min             =   9.9953449125180E-01
(PID.TID 0000.0001) %MON dynstat_salt_mean            =   1.0068444694598E+00
(PID.TID 0000.0001) %MON dynstat_salt_sd              =   5.9732982719851E-02
(PID.TID 0000.0001) %MON dynstat_salt_del2            =   4.1370946305427E-04
(PID.TID 0000.0001) %MON advcfl_uvel_max              =   1.0218201555446E+00
(PID.TID 0000.0001) %MON advcfl_vvel_max              =   1.0218201555446E+00
(PID.TID 0000.0001) %MON advcfl_wvel_max              =   3.4746817944873E-16
(PID.TID 0000.0001) %MON advcfl_W_hf_max              =   0.0000000000000E+00
(PID.TID 0000.0001) %MON ke_max                       =   7.4455150023606E+02
(PID.TID 0000.0001) %MON ke_mean                      =   4.9661803126781E+02
(PID.TID 0000.0001) %MON ke_volint                    =   2.5323489810542E+22
(PID.TID 0000.0001) %MON ke_volmean                   =   4.9663214534537E+02
(PID.TID 0000.0001) // =======================================================
(PID.TID 0000.0001) // End MONITOR dynamic field statistics
(PID.TID 0000.0001) // =======================================================
(PID.TID 0000.0001) // =======================================================
(PID.TID 0000.0001) // Begin MONITOR dynamic field statistics
(PID.TID 0000.0001) // =======================================================
(PID.TID 0000.0001) %MON time_tsnumber                =                   138
(PID.TID 0000.0001) %MON time_secondsf                =   4.9680000000000E+05
(PID.TID 0000.0001) %MON time_secondsi                =                496800
(PID.TID 0000.0001) %MON dynstat_eta_max              =   0.0000000000000E+00
(PID.TID 0000.0001) %MON dynstat_eta_min              =   0.0000000000000E+00
(PID.TID 0000.0001) %MON dynstat_eta_mean             =   0.0000000000000E+00
(PID.TID 0000.0001) %MON dynstat_eta_sd               =   0.0000000000000E+00
(PID.TID 0000.0001) %MON dynstat_eta_del2             =   0.0000000000000E+00
(PID.TID 0000.0001) %MON dynstat_uvel_max             =   3.8588909729170E+01
(PID.TID 0000.0001) %MON dynstat_uvel_min             =  -2.6640751857540E+01
(PID.TID 0000.0001) %MON dynstat_uvel_mean            =   1.1767582051515E+01
(PID.TID 0000.0001) %MON dynstat_uvel_sd              =   1.8925013763619E+01
(PID.TID 0000.0001) %MON dynstat_uvel_del2            =   3.3977035061841E-02
(PID.TID 0000.0001) %MON dynstat_vvel_max             =   3.8588909729170E+01
(PID.TID 0000.0001) %MON dynstat_vvel_min             =  -2.6640751857540E+01
(PID.TID 0000.0001) %MON dynstat_vvel_mean            =   1.1767582051515E+01
(PID.TID 0000.0001) %MON dynstat_vvel_sd              =   1.8925013763619E+01
(PID.TID 0000.0001) %MON dynstat_vvel_del2            =   3.3977035061841E-02
(PID.TID 0000.0001) %MON dynstat_wvel_max             =   4.8259469367879E-15
(PID.TID 0000.0001) %MON dynstat_wvel_min             =  -4.8259469367879E-15
(PID.TID 0000.0001) %MON dynstat_wvel_mean            =  -2.6408038640800E-34
(PID.TID 0000.0001) %MON dynstat_wvel_sd              =   1.3451301434752E-15
(PID.TID 0000.0001) %MON dynstat_wvel_del2            =   1.3733452540939E-15
(PID.TID 0000.0001) %MON dynstat_theta_max            =   1.8446696285464E+00
(PID.TID 0000.0001) %MON dynstat_theta_min            =   9.9985705414186E-01
(PID.TID 0000.0001) %MON dynstat_theta_mean           =   1.0066874826115E+00
(PID.TID 0000.0001) %MON dynstat_theta_sd             =   5.7573038274855E-02
(PID.TID 0000.0001) %MON dynstat_theta_del2           =   3.9070486813540E-04
(PID.TID 0000.0001) %MON dynstat_salt_max             =   1.8826983140185E+00
(PID.TID 0000.0001) %MON dynstat_salt_min             =   9.9939083014862E-01
(PID.TID 0000.0001) %MON dynstat_salt_mean            =   1.0068312994188E+00
(PID.TID 0000.0001) %MON dynstat_salt_sd              =   5.9558433618104E-02
(PID.TID 0000.0001) %MON dynstat_salt_del2            =   4.1552562183391E-04
(PID.TID 0000.0001) %MON advcfl_uvel_max              =   1.0218201555446E+00
(PID.TID 0000.0001) %MON advcfl_vvel_max              =   1.0218201555446E+00
(PID.TID 0000.0001) %MON advcfl_wvel_max              =   3.4746817944873E-16
(PID.TID 0000.0001) %MON advcfl_W_hf_max              =   0.0000000000000E+00
(PID.TID 0000.0001) %MON ke_max                       =   7.4455150023606E+02
(PID.TID 0000.0001) %MON ke_mean                      =   4.9661803126781E+02
(PID.TID 0000.0001) %MON ke_volint                    =   2.5323489810542E+22
(PID.TID 0000.0001) %MON ke_volmean                   =   4.9663214534537E+02
(PID.TID 0000.0001) // =======================================================
(PID.TID 0000.0001) // End MONITOR dynamic field statistics
(PID.TID 0000.0001) // =======================================================
(PID.TID 0000.0001) // =======================================================
(PID.TID 0000.0001) // Begin MONITOR dynamic field statistics
(PID.TID 0000.0001) // =======================================================
(PID.TID 0000.0001) %MON time_tsnumber                =                   144
(PID.TID 0000.0001) %MON time_secondsf                =   5.1840000000000E+05
(PID.TID 0000.0001) %MON time_secondsi                =                518400
(PID.TID 0000.0001) %MON dynstat_eta_max              =   0.0000000000000E+00
(PID.TID 0000.0001) %MON dynstat_eta_min              =   0.0000000000000E+00
(PID.TID 0000.0001) %MON dynstat_eta_mean             =   0.0000000000000E+00
(PID.TID 0000.0001) %MON dynstat_eta_sd               =   0.0000000000000E+00
(PID.TID 0000.0001) %MON dynstat_eta_del2             =   0.0000000000000E+00
(PID.TID 0000.0001) %MON dynstat_uvel_max             =   3.8588909729170E+01
(PID.TID 0000.0001) %MON dynstat_uvel_min             =  -2.6640751857540E+01
(PID.TID 0000.0001) %MON dynstat_uvel_mean            =   1.1767582051515E+01
(PID.TID 0000.0001) %MON dynstat_uvel_sd              =   1.8925013763619E+01
(PID.TID 0000.0001) %MON dynstat_uvel_del2            =   3.3977035061841E-02
(PID.TID 0000.0001) %MON dynstat_vvel_max             =   3.8588909729170E+01
(PID.TID 0000.0001) %MON dynstat_vvel_min             =  -2.6640751857540E+01
(PID.TID 0000.0001) %MON dynstat_vvel_mean            =   1.1767582051515E+01
(PID.TID 0000.0001) %MON dynstat_vvel_sd              =   1.8925013763619E+01
(PID.TID 0000.0001) %MON dynstat_vvel_del2            =   3.3977035061841E-02
(PID.TID 0000.0001) %MON dynstat_wvel_max             =   4.8259469367879E-15
(PID.TID 0000.0001) %MON dynstat_wvel_min             =  -4.8259469367879E-15
(PID.TID 0000.0001) %MON dynstat_wvel_mean            =  -2.6408038640800E-34
(PID.TID 0000.0001) %MON dynstat_wvel_sd              =   1.3451301434752E-15
(PID.TID 0000.0001) %MON dynstat_wvel_del2            =   1.3733452540939E-15
(PID.TID 0000.0001) %MON dynstat_theta_max            =   1.8399774008500E+00
(PID.TID 0000.0001) %MON dynstat_theta_min            =   9.9986902839231E-01
(PID.TID 0000.0001) %MON dynstat_theta_mean           =   1.0066874826115E+00
(PID.TID 0000.0001) %MON dynstat_theta_sd             =   5.7428651476595E-02
(PID.TID 0000.0001) %MON dynstat_theta_del2           =   3.9125744115556E-04
(PID.TID 0000.0001) %MON dynstat_salt_max             =   1.8779079633692E+00
(PID.TID 0000.0001) %MON dynstat_salt_min             =   9.9955877327696E-01
(PID.TID 0000.0001) %MON dynstat_salt_mean            =   1.0068193668241E+00
(PID.TID 0000.0001) %MON dynstat_salt_sd              =   5.9393198908818E-02
(PID.TID 0000.0001) %MON dynstat_salt_del2            =   4.1828894731895E-04
(PID.TID 0000.0001) %MON advcfl_uvel_max              =   1.0218201555446E+00
(PID.TID 0000.0001) %MON advcfl_vvel_max              =   1.0218201555446E+00
(PID.TID 0000.0001) %MON advcfl_wvel_max              =   3.4746817944873E-16
(PID.TID 0000.0001) %MON advcfl_W_hf_max              =   0.0000000000000E+00
(PID.TID 0000.0001) %MON ke_max                       =   7.4455150023606E+02
(PID.TID 0000.0001) %MON ke_mean                      =   4.9661803126781E+02
(PID.TID 0000.0001) %MON ke_volint                    =   2.5323489810542E+22
(PID.TID 0000.0001) %MON ke_volmean                   =   4.9663214534537E+02
(PID.TID 0000.0001) // =======================================================
(PID.TID 0000.0001) // End MONITOR dynamic field statistics
(PID.TID 0000.0001) // =======================================================
(PID.TID 0000.0001) // =======================================================
(PID.TID 0000.0001) // Field Current uVel   at iteration        144
(PID.TID 0000.0001) // CMIN =         -2.664075185753955E+01
(PID.TID 0000.0001) // CMAX =          3.858890972916976E+01
(PID.TID 0000.0001) // CINT =          2.415913392100345E+00
(PID.TID 0000.0001) // SYMBOLS (CMIN->CMAX): -abcdefghijklmnopqrstuvwxyz+
(PID.TID 0000.0001) //                  0.0: .
(PID.TID 0000.0001) // RANGE I (Lo:Hi:Step):(   1: 192:   1)
(PID.TID 0000.0001) // RANGE J (Lo:Hi:Step):(  32:   1:  -1)
(PID.TID 0000.0001) // RANGE K (Lo:Hi:Step):(   1:   1:   1)
(PID.TID 0000.0001) // =======================================================
(PID.TID 0000.0001) K =   1
(PID.TID 0000.0001)                I=10      I=20      I=30      I=40      I=50      I=60      I=70      I=80      I=90      I=100     I=110     I=120     I=130     I=140     I=150     I=160     I=170     I=180     I=190
(PID.TID 0000.0001) |--J--|123456789|123456789|123456789|123456789|123456789|123456789|123456789|123456789|123456789|123456789|123456789|123456789|123456789|123456789|123456789|123456789|123456789|123456789|123456789|12
(PID.TID 0000.0001)     32 xwwwwwwwwwwwwwwwwwwwwwwwwwwwwwwwxwwwwwwwwwwwwwwwwwwwwwwwwwwwwwwwea-----------------------------aeijjkkkkkkkkkkkk.kkkkkkkkkkkkllmeijjkkkkkkkkkkkk.kkkkkkkkkkkkllmquvvvvvvvvvvvvvvvvvvvvvvvvvvvvvu
(PID.TID 0000.0001)     31 xxxxwwwwwwwwwwwwwwwwwwwwwwwwwxxxxxxxwwwwwwwwwwwwwwwwwwwwwwwwwxxxecbaaaaaaaaaaaaaaaaaaaaaaaaaaabcegiijjjjkkkkkkkk.kkkkkkkkllllmmoegiijjjjkkkkkkkk.kkkkkkkkllllmmoqstuuuuuuuuuuuuuuuuuuuuuuuuuuuts
(PID.TID 0000.0001)     30 yxxxxxxxxxxxxxxxxxxxxxxxxxxxxxxxyxxxxxxxxxxxxxxxxxxxxxxxxxxxxxxxedcbbbaaaaaaaaaaaaaaaaaaaaabbbcdeghiijjjjjkkkkkk.kkkkkklllllmmnpeghiijjjjjkkkkkk.kkkkkklllllmmnpqrstttuuuuuuuuuuuuuuuuuuuuutttsr
(PID.TID 0000.0001)     29 yyyyxxxxxxxxxxxxxxxxxxxxxxxxxyyyyyyyxxxxxxxxxxxxxxxxxxxxxxxxxyyyeddccbbbbbbbbbbbbbbbbbbbbbbbccddefghiijjjjjkkkkk.kkkkklllllmmnopefghiijjjjjkkkkk.kkkkklllllmmnopqrssstttttttttttttttttttttttsssr
(PID.TID 0000.0001)     28 yyyyyyyyyyyxxxxxxxxxxxyyyyyyyyyyyyyyyyyyyyyxxxxxxxxxxxyyyyyyyyyyfeddccccccbbbbbbbbbbbbbccccccddeffghiiijjjjjkkkk.kkkklllllmmnnopffghiiijjjjjkkkk.kkkklllllmmnnoppqrrssssstttttttttttttttsssssrrq
(PID.TID 0000.0001)     27 yyyyyyyyyyyyyyyyyyyyyyyyyyyyyyyyyyyyyyyyyyyyyyyyyyyyyyyyyyyyyyyyfeeddddcccccccccccccccccccddddeefgghhiijjjjjkkkk.kkkklllllmmnnoofgghhiijjjjjkkkk.kkkklllllmmnnoopqqrrrsssssssssssssssssssssrrrqq
(PID.TID 0000.0001)     26 zzzzyyyyyyyyyyyyyyyyyyyyyyyyyzzzzzzzyyyyyyyyyyyyyyyyyyyyyyyyyzzzffeeedddddddddddddddddddddddeeeffgghhiijjjjjkkkk.kkklllllmmmnnoofgghhiijjjjjkkkk.kkklllllmmmnnooppqqqrrrrrrrrrrrrrrrrrrrrrrrqqqp
(PID.TID 0000.0001)     25 zzzzzzzzzzzzzzzzzzzzzzzzzzzzzzzzzzzzzzzzzzzzzzzzzzzzzzzzzzzzzzzzgfffeeeeeeeedddddddddeeeeeeeefffgghhiiijjjjjkkkk.kkklllllmmmnnnogghhiiijjjjjkkkk.kkklllllmmmnnnoopppqqqqqqrrrrrrrrrrrrrqqqqqqppp
(PID.TID 0000.0001)     24 zzzzzzzzzzzzzzzzzzzzzzzzzzzzzzzzzzzzzzzzzzzzzzzzzzzzzzzzzzzzzzzzgggfffffeeeeeeeeeeeeeeeeefffffggghhhiiijjjjjkkkk.kkkllllllmmmnnnghhhiiijjjjjkkkk.kkkllllllmmmnnnoopppppqqqqqqqqqqqqqqqqqqqpppppo
(PID.TID 0000.0001)     23 zzzzzzzzzzzzzzzzzzzzzzzzzzzzzzzzzzzzzzzzzzzzzzzzzzzzzzzzzzzzzzzzhggggfffffffffffffffffffffffgggghhhiiiijjjjjkkkk.kkkklllllmmmmnnhhhiiiijjjjjkkkk.kkkklllllmmmmnnnoooopppppppppppppppppppppppoooo
(PID.TID 0000.0001)     22 zzzzzzzzzzzzzzzzzzzzzzzzzzzzzzzzzzzzzzzzzzzzzzzzzzzzzzzzzzzzzzzzhhhhggggggggggggggggggggggggghhhhhiiiijjjjjjkkkk.kkkkllllllmmmmnhhiiiijjjjjjkkkk.kkkkllllllmmmmnnnnooooooooooooooooooooooooooonn
(PID.TID 0000.0001)     21 ++++++++++++++++++++++++++++++++++++++++++++++++++++++++++++++++ihhhhhhhhhhggggggggggghhhhhhhhhhiiiiijjjjjjkkkkk.kkkkkllllllmmmmiiiiijjjjjjkkkkk.kkkkkllllllmmmmmnnnnnnnnnooooooooooooonnnnnnnnn
(PID.TID 0000.0001)     20 ++++++++++++++++++++++++++++++++++++++++++++++++++++++++++++++++iiiiiihhhhhhhhhhhhhhhhhhhhhiiiiiiiijjjjjjjkkkkkk.kkkkkklllllllmmiiijjjjjjjkkkkkk.kkkkkklllllllmmmmmmmmnnnnnnnnnnnnnnnnnnnnnmmmmm
(PID.TID 0000.0001)     19 ++++++++++++++++++++++++++++++++++++++++++++++++++++++++++++++++jjiiiiiiiiiiiiiiiiiiiiiiiiiiiiijjjjjjjjjkkkkkkkk.kkkkkkklllllllljjjjjjjjkkkkkkkk.kkkkkkkllllllllllmmmmmmmmmmmmmmmmmmmmmmmmmmmmml
(PID.TID 0000.0001)     18 ++++++++++++++++++++++++++++++++++++++++++++++++++++++++++++++++jjjjjjjjjjjjjjjjjjjjjjjjjjjjjjjjjjjjjkkkkkkkkkkk.kkkkkkkkkkklllljjjjjkkkkkkkkkkk.kkkkkkkkkkkllllllllllllllllllllllllllllllllllll
(PID.TID 0000.0001)     17 ++++++++++++++++++++++++++++++++++++++++++++++++++++++++++++++++kkkkkkkkkkkkkkkkkkkkkkkkkkkkkkkkkkkkkkkkkkkkkkkk.kkkkkkkkkkkkkkkkkkkkkkkkkkkkkkk.kkkkkkkkkkkkkkkkkkkkkkkkkkkkkkkkkkkkkkkkkkkkkkk
(PID.TID 0000.0001)     16 ++++++++++++++++++++++++++++++++++++++++++++++++++++++++++++++++kkkkkkkkkkkkkkkkkkkkkkkkkkkkkkkkkkkkkkkkkkkkkkkk.kkkkkkkkkkkkkkkkkkkkkkkkkkkkkkk.kkkkkkkkkkkkkkkkkkkkkkkkkkkkkkkkkkkkkkkkkkkkkkk
(PID.TID 0000.0001)     15 ++++++++++++++++++++++++++++++++++++++++++++++++++++++++++++++++lllllllllllllllllllllllllllllllllllllkkkkkkkkkkk.kkkkkkkkkkkjjjjlllllkkkkkkkkkkk.kkkkkkkkkkkjjjjjjjjjjjjjjjjjjjjjjjjjjjjjjjjjjjj
(PID.TID 0000.0001)     14 ++++++++++++++++++++++++++++++++++++++++++++++++++++++++++++++++llmmmmmmmmmmmmmmmmmmmmmmmmmmmmmllllllllllkkkkkkk.kkkkkkkkjjjjjjjlllllllllkkkkkkk.kkkkkkkkjjjjjjjjjiiiiiiiiiiiiiiiiiiiiiiiiiiiiij
(PID.TID 0000.0001)     13 ++++++++++++++++++++++++++++++++++++++++++++++++++++++++++++++++mmmmmmnnnnnnnnnnnnnnnnnnnnnmmmmmmmmlllllllkkkkkk.kkkkkkjjjjjjjiimmmlllllllkkkkkk.kkkkkkjjjjjjjiiiiiiiihhhhhhhhhhhhhhhhhhhhhiiiii
(PID.TID 0000.0001)     12 ++++++++++++++++++++++++++++++++++++++++++++++++++++++++++++++++mnnnnnnnnnooooooooooooonnnnnnnnnmmmmmllllllkkkkk.kkkkkjjjjjjiiiimmmmmllllllkkkkk.kkkkkjjjjjjiiiiihhhhhhhhhhggggggggggghhhhhhhhhh
(PID.TID 0000.0001)     11 zzzzzzzzzzzzzzzzzzzzzzzzzzzzzzzzzzzzzzzzzzzzzzzzzzzzzzzzzzzzzzzznnnooooooooooooooooooooooooooonnnnmmmmllllllkkkk.kkkkjjjjjjiiiihnnmmmmllllllkkkk.kkkkjjjjjjiiiihhhhhggggggggggggggggggggggggghhh
(PID.TID 0000.0001)     10 zzzzzzzzzzzzzzzzzzzzzzzzzzzzzzzzzzzzzzzzzzzzzzzzzzzzzzzzzzzzzzzznoooopppppppppppppppppppppppoooonnnmmmmlllllkkkk.kkkkjjjjjiiiihhnnnmmmmlllllkkkk.kkkkjjjjjiiiihhhggggfffffffffffffffffffffffgggg
(PID.TID 0000.0001)      9 zzzzzzzzzzzzzzzzzzzzzzzzzzzzzzzzzzzzzzzzzzzzzzzzzzzzzzzzzzzzzzzzoopppppqqqqqqqqqqqqqqqqqqqpppppoonnnmmmllllllkkk.kkkkjjjjjiiihhhonnnmmmllllllkkk.kkkkjjjjjiiihhhgggfffffeeeeeeeeeeeeeeeeefffffgg
(PID.TID 0000.0001)      8 zzzzzzzzzzzzzzzzzzzzzzzzzzzzzzzzzzzzzzzzzzzzzzzzzzzzzzzzzzzzzzzzopppqqqqqqrrrrrrrrrrrrrqqqqqqpppoonnnmmmlllllkkk.kkkkjjjjjiiihhgoonnnmmmlllllkkk.kkkkjjjjjiiihhggfffeeeeeeeedddddddddeeeeeeeefff
(PID.TID 0000.0001)      7 zzzzyyyyyyyyyyyyyyyyyyyyyyyyyzzzzzzzyyyyyyyyyyyyyyyyyyyyyyyyyzzzppqqqrrrrrrrrrrrrrrrrrrrrrrrqqqppoonnmmmlllllkkk.kkkkjjjjjiihhggpoonnmmmlllllkkk.kkkkjjjjjiihhggffeeedddddddddddddddddddddddeeef
(PID.TID 0000.0001)      6 yyyyyyyyyyyyyyyyyyyyyyyyyyyyyyyyyyyyyyyyyyyyyyyyyyyyyyyyyyyyyyyypqqrrrsssssssssssssssssssssrrrqqpoonnmmlllllkkkk.kkkkjjjjjiihhggpoonnmmlllllkkkk.kkkkjjjjjiihhggfeeddddcccccccccccccccccccddddee
(PID.TID 0000.0001)      5 yyyyyyyyyyyxxxxxxxxxxxyyyyyyyyyyyyyyyyyyyyyxxxxxxxxxxxyyyyyyyyyypqrrssssstttttttttttttttsssssrrqpponnmmlllllkkkk.kkkkjjjjjiiihgfpponnmmlllllkkkk.kkkkjjjjjiiihgffeddccccccbbbbbbbbbbbbbccccccdde
(PID.TID 0000.0001)      4 yyyyxxxxxxxxxxxxxxxxxxxxxxxxxyyyyyyyxxxxxxxxxxxxxxxxxxxxxxxxxyyyqrssstttttttttttttttttttttttsssrqponmmlllllkkkkk.kkkkkjjjjjiihgfqponmmlllllkkkkk.kkkkkjjjjjiihgfeddccbbbbbbbbbbbbbbbbbbbbbbbccdd
(PID.TID 0000.0001)      3 yxxxxxxxxxxxxxxxxxxxxxxxxxxxxxxxyxxxxxxxxxxxxxxxxxxxxxxxxxxxxxxxqrstttuuuuuuuuuuuuuuuuuuuuutttsrqpnmmlllllkkkkkk.kkkkkkjjjjjiihgqpnmmlllllkkkkkk.kkkkkkjjjjjiihgedcbbbaaaaaaaaaaaaaaaaaaaaabbbcd
(PID.TID 0000.0001)      2 xxxxwwwwwwwwwwwwwwwwwwwwwwwwwxxxxxxxwwwwwwwwwwwwwwwwwwwwwwwwwxxxqstuuuuuuuuuuuuuuuuuuuuuuuuuuutsqommllllkkkkkkkk.kkkkkkkkjjjjiigqommllllkkkkkkkk.kkkkkkkkjjjjiigecbaaaaaaaaaaaaaaaaaaaaaaaaaaabc
(PID.TID 0000.0001)      1 xwwwwwwwwwwwwwwwwwwwwwwwwwwwwwwwxwwwwwwwwwwwwwwwwwwwwwwwwwwwwwwwquvvvvvvvvvvvvvvvvvvvvvvvvvvvvvuqmllkkkkkkkkkkkk.kkkkkkkkkkkkjjiqmllkkkkkkkkkkkk.kkkkkkkkkkkkjjiea-----------------------------a
(PID.TID 0000.0001) // =======================================================
(PID.TID 0000.0001) // END OF FIELD                                          =
(PID.TID 0000.0001) // =======================================================
(PID.TID 0000.0001) 
(PID.TID 0000.0001) // =======================================================
(PID.TID 0000.0001) // Field Current vVel   at iteration        144
(PID.TID 0000.0001) // CMIN =         -2.664075185753955E+01
(PID.TID 0000.0001) // CMAX =          3.858890972916976E+01
(PID.TID 0000.0001) // CINT =          2.415913392100345E+00
(PID.TID 0000.0001) // SYMBOLS (CMIN->CMAX): -abcdefghijklmnopqrstuvwxyz+
(PID.TID 0000.0001) //                  0.0: .
(PID.TID 0000.0001) // RANGE I (Lo:Hi:Step):(   1: 192:   1)
(PID.TID 0000.0001) // RANGE J (Lo:Hi:Step):(  32:   1:  -1)
(PID.TID 0000.0001) // RANGE K (Lo:Hi:Step):(   1:   1:   1)
(PID.TID 0000.0001) // =======================================================
(PID.TID 0000.0001) K =   1
(PID.TID 0000.0001)                I=10      I=20      I=30      I=40      I=50      I=60      I=70      I=80      I=90      I=100     I=110     I=120     I=130     I=140     I=150     I=160     I=170     I=180     I=190
(PID.TID 0000.0001) |--J--|123456789|123456789|123456789|123456789|123456789|123456789|123456789|123456789|123456789|123456789|123456789|123456789|123456789|123456789|123456789|123456789|123456789|123456789|123456789|12
(PID.TID 0000.0001)     32 iggffggghhhiijjkkllmmnnnooopppomiggffggghhhiijjkkllmmnnnooopppomacddeeffgghhijjkkllmnnooppqqrrsuwxxyyyzzzzz++++++++++zzzzzyyyxxwwxxyyyzzzzz++++++++++zzzzzyyyxxwusrrqqppoonnmllkkjjihhggffeeddca
(PID.TID 0000.0001)     31 jihgggghhhiiijjkkllmmmnnnoooonmljihgggghhhiiijjkkllmmmnnnoooonml-bcddeefgghhiijkklmmnnoppqqrsstvwxxyyyzzzzz++++++++++zzzzzyyyxxwwxxyyyzzzzz++++++++++zzzzzyyyxxwvtssrqqpponnmmlkkjiihhggfeeddcb-
(PID.TID 0000.0001)     30 jiihhhhhhiiijjjkklllmmmnnnnnnmmljiihhhhhhiiijjjkklllmmmnnnnnnmml-abcddeffghhiijkklmmnooppqrrstuvwxxyyyzzzzz++++++++++zzzzzyyyxxwwxxyyyzzzzz++++++++++zzzzzyyyxxwvutsrrqppoonmmlkkjiihhgffeddcba-
(PID.TID 0000.0001)     29 kjiiihhiiiiijjjkklllmmmmnnnnmmlkkjiiihhiiiiijjjkklllmmmmnnnnmmlk-abccdeefgghiijkklmmnoopqqrsstuvwwxxyyyzzzz++++++++++zzzzyyyxxwwwwxxyyyzzzz++++++++++zzzzyyyxxwwvutssrqqpoonmmlkkjiihggfeedccba-
(PID.TID 0000.0001)     28 kjjiiiiiiiijjjkkkklllmmmmmmmmllkkjjiiiiiiiijjjkkkklllmmmmmmmmllk-abbcddeffghiijkklmmnoppqrrsttuvwwxxyyyzzzz++++++++++zzzzyyyxxwwwwxxyyyzzzz++++++++++zzzzyyyxxwwvuttsrrqpponmmlkkjiihgffeddcbba-
(PID.TID 0000.0001)     27 kjjjiiiiiijjjjkkkkllllmmmmmmlllkkjjjiiiiiijjjjkkkkllllmmmmmmlllk-aabcddeffghhijkklmnnoppqrsstuuvwwxxyyyzzzz++++++++++zzzzyyyxxwwwwxxyyyzzzz++++++++++zzzzyyyxxwwvuutssrqpponnmlkkjihhgffeddcbaa-
(PID.TID 0000.0001)     26 kjjjjjjjjjjjjjkkkkllllllmmlllllkkjjjjjjjjjjjjjkkkkllllllmmlllllk-aabccdeffghhijkklmnnopqqrsstuuvwwxxyyyzzzz++++++++++zzzzyyyxxwwwwxxyyyzzzz++++++++++zzzzyyyxxwwvuutssrqqponnmlkkjihhgffedccbaa-
(PID.TID 0000.0001)     25 kkjjjjjjjjjjjkkkkkllllllllllllkkkkjjjjjjjjjjjkkkkkllllllllllllkk-aabccdeefghhijkklmnnopqqrsstuuvwwxxyyyzzzz++++++++++zzzzyyyxxwwwwxxyyyzzzz++++++++++zzzzyyyxxwwvuutssrqqponnmlkkjihhgfeedccbaa-
(PID.TID 0000.0001)     24 kkjjjjjjjjjjjkkkkkklllllllllllkkkkjjjjjjjjjjjkkkkkklllllllllllkk-aabccdeefghhijkklmnnopqqrsttuuvwwxxyyyzzzz++++++++++zzzzyyyxxwwwwxxyyyzzzz++++++++++zzzzyyyxxwwvuuttsrqqponnmlkkjihhgfeedccbaa-
(PID.TID 0000.0001)     23 kkkjjjjjjjjjkkkkkkkklllllllllkkkkkkjjjjjjjjjkkkkkkkklllllllllkkk-aabbcdeefghhijkklmnoopqrrsttuuvwwxxyyyzzzz++++++++++zzzzyyyxxwwwwxxyyyzzzz++++++++++zzzzyyyxxwwvuuttsrrqpoonmlkkjihhgfeedcbbaa-
(PID.TID 0000.0001)     22 kkkkjjjjjjjkkkkkkkkkklllllllkkkkkkkkjjjjjjjkkkkkkkkkklllllllkkkk-aabbcdeefgghijkklmnoopqrrsttuuvwwxxxyyzzzz++++++++++zzzzyyxxxwwwwxxxyyzzzz++++++++++zzzzyyxxxwwvuuttsrrqpoonmlkkjihggfeedcbbaa-
(PID.TID 0000.0001)     21 kkkkkkkkkkkkkkkkkkkkkkklllkkkkkkkkkkkkkkkkkkkkkkkkkkkkklllkkkkkk-aabbcddefgghijkklmnoopqrrsttuuvwwxxxyyzzzz++++++++++zzzzyyxxxwwwwxxxyyzzzz++++++++++zzzzyyxxxwwvuuttsrrqpoonmlkkjihggfeddcbbaa-
(PID.TID 0000.0001)     20 kkkkkkkkkkkkkkkkkkkkkkkkkkkkkkkkkkkkkkkkkkkkkkkkkkkkkkkkkkkkkkkk-aabbcddefgghijkklmnoopqrrsttuuvwwxxxyyzzzz++++++++++zzzzyyxxxwwwwxxxyyzzzz++++++++++zzzzyyxxxwwvuuttsrrqpoonmlkkjihggfeddcbbaa-
(PID.TID 0000.0001)     19 kkkkkkkkkkkkkkkkkkkkkkkkkkkkkkkkkkkkkkkkkkkkkkkkkkkkkkkkkkkkkkkk-aabbcddefgghijkklmnoopqrrsttuuvwwxxxyyzzzz++++++++++zzzzyyxxxwwwwxxxyyzzzz++++++++++zzzzyyxxxwwvuuttsrrqpoonmlkkjihggfeddcbbaa-
(PID.TID 0000.0001)     18 kkkkkkkkkkkkkkkkkkkkkkkkkkkkkkkkkkkkkkkkkkkkkkkkkkkkkkkkkkkkkkkk-aabbcddefgghijkklmnoopqrrsttuuvwwxxxyyzzzz++++++++++zzzzyyxxxwwwwxxxyyzzzz++++++++++zzzzyyxxxwwvuuttsrrqpoonmlkkjihggfeddcbbaa-
(PID.TID 0000.0001)     17 ................................................................-aabbcddefgghijkklmnoopqrrsttuuvwwxxxyyzzzz++++++++++zzzzyyxxxwwwwxxxyyzzzz++++++++++zzzzyyxxxwwvuuttsrrqpoonmlkkjihggfeddcbbaa-
(PID.TID 0000.0001)     16 kkkkkkkkkkkkkkkkkkkkkkkkkkkkkkkkkkkkkkkkkkkkkkkkkkkkkkkkkkkkkkkk-aabbcddefgghijkklmnoopqrrsttuuvwwxxxyyzzzz++++++++++zzzzyyxxxwwwwxxxyyzzzz++++++++++zzzzyyxxxwwvuuttsrrqpoonmlkkjihggfeddcbbaa-
(PID.TID 0000.0001)     15 kkkkkkkkkkkkkkkkkkkkkkkkkkkkkkkkkkkkkkkkkkkkkkkkkkkkkkkkkkkkkkkk-aabbcddefgghijkklmnoopqrrsttuuvwwxxxyyzzzz++++++++++zzzzyyxxxwwwwxxxyyzzzz++++++++++zzzzyyxxxwwvuuttsrrqpoonmlkkjihggfeddcbbaa-
(PID.TID 0000.0001)     14 kkkkkkkkkkkkkkkkkkkkkkkkkkkkkkkkkkkkkkkkkkkkkkkkkkkkkkkkkkkkkkkk-aabbcddefgghijkklmnoopqrrsttuuvwwxxxyyzzzz++++++++++zzzzyyxxxwwwwxxxyyzzzz++++++++++zzzzyyxxxwwvuuttsrrqpoonmlkkjihggfeddcbbaa-
(PID.TID 0000.0001)     13 kkkkkklllkkkkkkkkkkkkkkkkkkkkkkkkkkkkklllkkkkkkkkkkkkkkkkkkkkkkk-aabbcddefgghijkklmnoopqrrsttuuvwwxxxyyzzzz++++++++++zzzzyyxxxwwwwxxxyyzzzz++++++++++zzzzyyxxxwwvuuttsrrqpoonmlkkjihggfeddcbbaa-
(PID.TID 0000.0001)     12 kkkklllllllkkkkkkkkkkjjjjjjjkkkkkkkklllllllkkkkkkkkkkjjjjjjjkkkk-aabbcdeefgghijkklmnoopqrrsttuuvwwxxxyyzzzz++++++++++zzzzyyxxxwwwwxxxyyzzzz++++++++++zzzzyyxxxwwvuuttsrrqpoonmlkkjihggfeedcbbaa-
(PID.TID 0000.0001)     11 kkklllllllllkkkkkkkkjjjjjjjjjkkkkkklllllllllkkkkkkkkjjjjjjjjjkkk-aabbcdeefghhijkklmnoopqrrsttuuvwwxxyyyzzzz++++++++++zzzzyyyxxwwwwxxyyyzzzz++++++++++zzzzyyyxxwwvuuttsrrqpoonmlkkjihhgfeedcbbaa-
(PID.TID 0000.0001)     10 kklllllllllllkkkkkkjjjjjjjjjjjkkkklllllllllllkkkkkkjjjjjjjjjjjkk-aabccdeefghhijkklmnnopqqrsttuuvwwxxyyyzzzz++++++++++zzzzyyyxxwwwwxxyyyzzzz++++++++++zzzzyyyxxwwvuuttsrqqponnmlkkjihhgfeedccbaa-
(PID.TID 0000.0001)      9 kkllllllllllllkkkkkjjjjjjjjjjjkkkkllllllllllllkkkkkjjjjjjjjjjjkk-aabccdeefghhijkklmnnopqqrsstuuvwwxxyyyzzzz++++++++++zzzzyyyxxwwwwxxyyyzzzz++++++++++zzzzyyyxxwwvuutssrqqponnmlkkjihhgfeedccbaa-
(PID.TID 0000.0001)      8 klllllmmllllllkkkkjjjjjjjjjjjjjkklllllmmllllllkkkkjjjjjjjjjjjjjk-aabccdeffghhijkklmnnopqqrsstuuvwwxxyyyzzzz++++++++++zzzzyyyxxwwwwxxyyyzzzz++++++++++zzzzyyyxxwwvuutssrqqponnmlkkjihhgffedccbaa-
(PID.TID 0000.0001)      7 klllmmmmmmllllkkkkjjjjiiiiiijjjkklllmmmmmmllllkkkkjjjjiiiiiijjjk-aabcddeffghhijkklmnnoppqrsstuuvwwxxyyyzzzz++++++++++zzzzyyyxxwwwwxxyyyzzzz++++++++++zzzzyyyxxwwvuutssrqpponnmlkkjihhgffeddcbaa-
(PID.TID 0000.0001)      6 kllmmmmmmmmlllkkkkjjjiiiiiiiijjkkllmmmmmmmmlllkkkkjjjiiiiiiiijjk-abbcddeffghiijkklmmnoppqrrsttuvwwxxyyyzzzz++++++++++zzzzyyyxxwwwwxxyyyzzzz++++++++++zzzzyyyxxwwvuttsrrqpponmmlkkjiihgffeddcbba-
(PID.TID 0000.0001)      5 klmmnnnnmmmmlllkkjjjiiiiihhiiijkklmmnnnnmmmmlllkkjjjiiiiihhiiijk-abccdeefgghiijkklmmnoopqqrsstuvwwxxyyyzzzz++++++++++zzzzyyyxxwwwwxxyyyzzzz++++++++++zzzzyyyxxwwvutssrqqpoonmmlkkjiihggfeedccba-
(PID.TID 0000.0001)      4 lmmnnnnnnmmmlllkkjjjiiihhhhhhiijlmmnnnnnnmmmlllkkjjjiiihhhhhhiij-abcddeffghhiijkklmmnooppqrrstuvwxxyyyzzzzz++++++++++zzzzzyyyxxwwxxyyyzzzzz++++++++++zzzzzyyyxxwvutsrrqppoonmmlkkjiihhgffeddcba-
(PID.TID 0000.0001)      3 lmnoooonnnmmmllkkjjiiihhhgggghijlmnoooonnnmmmllkkjjiiihhhgggghij-bcddeefgghhiijkklmmnnoppqqrsstvwxxyyyzzzzz++++++++++zzzzzyyyxxwwxxyyyzzzzz++++++++++zzzzzyyyxxwvtssrqqpponnmmlkkjiihhggfeeddcb-
(PID.TID 0000.0001)      2 mopppooonnnmmllkkjjiihhhgggffggimopppooonnnmmllkkjjiihhhgggffggiacddeeffgghhijjkkllmnnooppqqrrsuwxxyyyzzzzz++++++++++zzzzzyyyxxwwxxyyyzzzzz++++++++++zzzzzyyyxxwusrrqqppoonnmllkkjjihhggffeeddca
(PID.TID 0000.0001)      1 qqqqpppoonnmmllkkjjiihhggfffeeeeqqqqpppoonnmmllkkjjiihhggfffeeeeeeeefffgghhiijjkkllmmnnoopppqqqqxxyyyyzzzzz++++++++++zzzzzyyyyxxxxyyyyzzzzz++++++++++zzzzzyyyyxxqqqqpppoonnmmllkkjjiihhggfffeeee
(PID.TID 0000.0001) // =======================================================
(PID.TID 0000.0001) // END OF FIELD                                          =
(PID.TID 0000.0001) // =======================================================
(PID.TID 0000.0001) 
(PID.TID 0000.0001) // =======================================================
(PID.TID 0000.0001) // Field Current theta  at iteration        144
(PID.TID 0000.0001) // CMIN =          9.998690283923112E-01
(PID.TID 0000.0001) // CMAX =          1.839977400849991E+00
(PID.TID 0000.0001) // CINT =          3.111512490584001E-02
(PID.TID 0000.0001) // SYMBOLS (CMIN->CMAX): -abcdefghijklmnopqrstuvwxyz+
(PID.TID 0000.0001) //                  0.0: .
(PID.TID 0000.0001) // RANGE I (Lo:Hi:Step):(   1: 192:   1)
(PID.TID 0000.0001) // RANGE J (Lo:Hi:Step):(  32:   1:  -1)
(PID.TID 0000.0001) // RANGE K (Lo:Hi:Step):(   1:   1:   1)
(PID.TID 0000.0001) // =======================================================
(PID.TID 0000.0001) K =   1
(PID.TID 0000.0001)                I=10      I=20      I=30      I=40      I=50      I=60      I=70      I=80      I=90      I=100     I=110     I=120     I=130     I=140     I=150     I=160     I=170     I=180     I=190
(PID.TID 0000.0001) |--J--|123456789|123456789|123456789|123456789|123456789|123456789|123456789|123456789|123456789|123456789|123456789|123456789|123456789|123456789|123456789|123456789|123456789|123456789|123456789|12
(PID.TID 0000.0001)     32 ------------------------------------------------------------------------------------------------------------------------------------------------------------------------------------------------
(PID.TID 0000.0001)     31 ------------------------------------------------------------------------------------------------------------------------------------------------------------------------------------------------
(PID.TID 0000.0001)     30 ------------------------------------------------------------------------------------------------------------------------------------------------------------------------------------------------
(PID.TID 0000.0001)     29 ------------------------------------------------------------------------------------------------------------------------------------------------------------------------------------------------
(PID.TID 0000.0001)     28 ------------------------------------------------------------------------------------------------------------------------------------------------------------------------------------------------
(PID.TID 0000.0001)     27 ------------------------------------------------------------------------------------------------------------------------------------------------------------------------------------------------
(PID.TID 0000.0001)     26 ------------------------------------------------------------------------------------------------------------------------------------------------------------------------------------------------
(PID.TID 0000.0001)     25 ------------------------------------------------------------------------------------------------------------------------------------------------------------------------------------------------
(PID.TID 0000.0001)     24 ------------------------------------------------------------------------------------------------------------------------------------------------------------------------------------------------
(PID.TID 0000.0001)     23 ------------------------------------------------------------------------------------------------------------------------------------------------------------------------------------------------
(PID.TID 0000.0001)     22 ---------------------------------------------------------------------------------------------------------------------------------------------abbbba---------------------------------------------
(PID.TID 0000.0001)     21 --------------------------------------------------------------------------------------------------------------------------------------------bceggecb--------------------------------------------
(PID.TID 0000.0001)     20 -------------------------------------------------------------------------------------------------------------------------------------------adgkmmkgda-------------------------------------------
(PID.TID 0000.0001)     19 -------------------------------------------------------------------------------------------------------------------------------------------bfkpsspkfb-------------------------------------------
(PID.TID 0000.0001)     18 -------------------------------------------------------------------------------------------------------------------------------------------chouyyuohc-------------------------------------------
(PID.TID 0000.0001)     17 -------------------------------------------------------------------------------------------------------------------------------------------ciqw++wqic-------------------------------------------
(PID.TID 0000.0001)     16 -------------------------------------------------------------------------------------------------------------------------------------------cipw++wpic-------------------------------------------
(PID.TID 0000.0001)     15 -------------------------------------------------------------------------------------------------------------------------------------------chouyyuohc-------------------------------------------
(PID.TID 0000.0001)     14 -------------------------------------------------------------------------------------------------------------------------------------------bfkqssqkfb-------------------------------------------
(PID.TID 0000.0001)     13 -------------------------------------------------------------------------------------------------------------------------------------------adgkmmkgda-------------------------------------------
(PID.TID 0000.0001)     12 --------------------------------------------------------------------------------------------------------------------------------------------bcfggfcb--------------------------------------------
(PID.TID 0000.0001)     11 ---------------------------------------------------------------------------------------------------------------------------------------------abbbba---------------------------------------------
(PID.TID 0000.0001)     10 ------------------------------------------------------------------------------------------------------------------------------------------------------------------------------------------------
(PID.TID 0000.0001)      9 ------------------------------------------------------------------------------------------------------------------------------------------------------------------------------------------------
(PID.TID 0000.0001)      8 ------------------------------------------------------------------------------------------------------------------------------------------------------------------------------------------------
(PID.TID 0000.0001)      7 ------------------------------------------------------------------------------------------------------------------------------------------------------------------------------------------------
(PID.TID 0000.0001)      6 ------------------------------------------------------------------------------------------------------------------------------------------------------------------------------------------------
(PID.TID 0000.0001)      5 ------------------------------------------------------------------------------------------------------------------------------------------------------------------------------------------------
(PID.TID 0000.0001)      4 ------------------------------------------------------------------------------------------------------------------------------------------------------------------------------------------------
(PID.TID 0000.0001)      3 ------------------------------------------------------------------------------------------------------------------------------------------------------------------------------------------------
(PID.TID 0000.0001)      2 ------------------------------------------------------------------------------------------------------------------------------------------------------------------------------------------------
(PID.TID 0000.0001)      1 ------------------------------------------------------------------------------------------------------------------------------------------------------------------------------------------------
(PID.TID 0000.0001) // =======================================================
(PID.TID 0000.0001) // END OF FIELD                                          =
(PID.TID 0000.0001) // =======================================================
(PID.TID 0000.0001) 
(PID.TID 0000.0001) // =======================================================
(PID.TID 0000.0001) // Field Current etaN   at iteration        144
(PID.TID 0000.0001) // CMIN =          1.000000000000000E+32
(PID.TID 0000.0001) // CMAX =         -1.000000000000000E+32
(PID.TID 0000.0001) // CINT =          0.000000000000000E+00
(PID.TID 0000.0001) // SYMBOLS (CMIN->CMAX): -abcdefghijklmnopqrstuvwxyz+
(PID.TID 0000.0001) //                  0.0: .
(PID.TID 0000.0001) // RANGE I (Lo:Hi:Step):(  -2: 195:   1)
(PID.TID 0000.0001) // RANGE J (Lo:Hi:Step):(  35:  -2:  -1)
(PID.TID 0000.0001) // RANGE K (Lo:Hi:Step):(   1:   1:   1)
(PID.TID 0000.0001) // =======================================================
(PID.TID 0000.0001) K =   1
(PID.TID 0000.0001)                I=7       I=17      I=27      I=31      I=41      I=51      I=61      I=65      I=75      I=85      I=95      I=99      I=109     I=119     I=129     I=133     I=143     I=153     I=163     I=167     I=177     I=187
(PID.TID 0000.0001) |--J--|**0123456|890123456|890123456|890123450|234567890|234567890|234567890|234567234|678901234|678901234|678901234|678945678|012345678|012345678|012345678|016789012|456789012|456789012|456789012|890123456|890123456|890123456|89012345
(PID.TID 0000.0001)     35 ....................................................................................................................................................................................................................................
(PID.TID 0000.0001)     34 ....................................................................................................................................................................................................................................
(PID.TID 0000.0001)     33 ....................................................................................................................................................................................................................................
(PID.TID 0000.0001)     32 ....................................................................................................................................................................................................................................
(PID.TID 0000.0001)     31 ....................................................................................................................................................................................................................................
(PID.TID 0000.0001)     30 ....................................................................................................................................................................................................................................
(PID.TID 0000.0001)     29 ....................................................................................................................................................................................................................................
(PID.TID 0000.0001)     28 ....................................................................................................................................................................................................................................
(PID.TID 0000.0001)     27 ....................................................................................................................................................................................................................................
(PID.TID 0000.0001)     26 ....................................................................................................................................................................................................................................
(PID.TID 0000.0001)     25 ....................................................................................................................................................................................................................................
(PID.TID 0000.0001)     24 ....................................................................................................................................................................................................................................
(PID.TID 0000.0001)     23 ....................................................................................................................................................................................................................................
(PID.TID 0000.0001)     22 ....................................................................................................................................................................................................................................
(PID.TID 0000.0001)     21 ....................................................................................................................................................................................................................................
(PID.TID 0000.0001)     20 ....................................................................................................................................................................................................................................
(PID.TID 0000.0001)     19 ....................................................................................................................................................................................................................................
(PID.TID 0000.0001)     18 ....................................................................................................................................................................................................................................
(PID.TID 0000.0001)     17 ....................................................................................................................................................................................................................................
(PID.TID 0000.0001)     16 ....................................................................................................................................................................................................................................
(PID.TID 0000.0001)     15 ....................................................................................................................................................................................................................................
(PID.TID 0000.0001)     14 ....................................................................................................................................................................................................................................
(PID.TID 0000.0001)     13 ....................................................................................................................................................................................................................................
(PID.TID 0000.0001)     12 ....................................................................................................................................................................................................................................
(PID.TID 0000.0001)     11 ....................................................................................................................................................................................................................................
(PID.TID 0000.0001)     10 ....................................................................................................................................................................................................................................
(PID.TID 0000.0001)      9 ....................................................................................................................................................................................................................................
(PID.TID 0000.0001)      8 ....................................................................................................................................................................................................................................
(PID.TID 0000.0001)      7 ....................................................................................................................................................................................................................................
(PID.TID 0000.0001)      6 ....................................................................................................................................................................................................................................
(PID.TID 0000.0001)      5 ....................................................................................................................................................................................................................................
(PID.TID 0000.0001)      4 ....................................................................................................................................................................................................................................
(PID.TID 0000.0001)      3 ....................................................................................................................................................................................................................................
(PID.TID 0000.0001)      2 ....................................................................................................................................................................................................................................
(PID.TID 0000.0001)      1 ....................................................................................................................................................................................................................................
(PID.TID 0000.0001)      0 ....................................................................................................................................................................................................................................
(PID.TID 0000.0001)     -1 ....................................................................................................................................................................................................................................
(PID.TID 0000.0001)     -2 ....................................................................................................................................................................................................................................
(PID.TID 0000.0001) // =======================================================
(PID.TID 0000.0001) // END OF FIELD                                          =
(PID.TID 0000.0001) // =======================================================
(PID.TID 0000.0001) 
(PID.TID 0000.0001) // =======================================================
(PID.TID 0000.0001) // Begin MONITOR dynamic field statistics
(PID.TID 0000.0001) // =======================================================
(PID.TID 0000.0001) %MON time_tsnumber                =                   150
(PID.TID 0000.0001) %MON time_secondsf                =   5.4000000000000E+05
(PID.TID 0000.0001) %MON time_secondsi                =                540000
(PID.TID 0000.0001) %MON dynstat_eta_max              =   0.0000000000000E+00
(PID.TID 0000.0001) %MON dynstat_eta_min              =   0.0000000000000E+00
(PID.TID 0000.0001) %MON dynstat_eta_mean             =   0.0000000000000E+00
(PID.TID 0000.0001) %MON dynstat_eta_sd               =   0.0000000000000E+00
(PID.TID 0000.0001) %MON dynstat_eta_del2             =   0.0000000000000E+00
(PID.TID 0000.0001) %MON dynstat_uvel_max             =   3.8588909729170E+01
(PID.TID 0000.0001) %MON dynstat_uvel_min             =  -2.6640751857540E+01
(PID.TID 0000.0001) %MON dynstat_uvel_mean            =   1.1767582051515E+01
(PID.TID 0000.0001) %MON dynstat_uvel_sd              =   1.8925013763619E+01
(PID.TID 0000.0001) %MON dynstat_uvel_del2            =   3.3977035061841E-02
(PID.TID 0000.0001) %MON dynstat_vvel_max             =   3.8588909729170E+01
(PID.TID 0000.0001) %MON dynstat_vvel_min             =  -2.6640751857540E+01
(PID.TID 0000.0001) %MON dynstat_vvel_mean            =   1.1767582051515E+01
(PID.TID 0000.0001) %MON dynstat_vvel_sd              =   1.8925013763619E+01
(PID.TID 0000.0001) %MON dynstat_vvel_del2            =   3.3977035061841E-02
(PID.TID 0000.0001) %MON dynstat_wvel_max             =   4.8259469367879E-15
(PID.TID 0000.0001) %MON dynstat_wvel_min             =  -4.8259469367879E-15
(PID.TID 0000.0001) %MON dynstat_wvel_mean            =  -2.6408038640800E-34
(PID.TID 0000.0001) %MON dynstat_wvel_sd              =   1.3451301434752E-15
(PID.TID 0000.0001) %MON dynstat_wvel_del2            =   1.3733452540939E-15
(PID.TID 0000.0001) %MON dynstat_theta_max            =   1.8391986867098E+00
(PID.TID 0000.0001) %MON dynstat_theta_min            =   9.9985485242427E-01
(PID.TID 0000.0001) %MON dynstat_theta_mean           =   1.0066874826115E+00
(PID.TID 0000.0001) %MON dynstat_theta_sd             =   5.7280154012603E-02
(PID.TID 0000.0001) %MON dynstat_theta_del2           =   3.8786529805599E-04
(PID.TID 0000.0001) %MON dynstat_salt_max             =   1.8747613160054E+00
(PID.TID 0000.0001) %MON dynstat_salt_min             =   9.9959487122493E-01
(PID.TID 0000.0001) %MON dynstat_salt_mean            =   1.0068070428874E+00
(PID.TID 0000.0001) %MON dynstat_salt_sd              =   5.9220788730747E-02
(PID.TID 0000.0001) %MON dynstat_salt_del2            =   4.1843057048912E-04
(PID.TID 0000.0001) %MON advcfl_uvel_max              =   1.0218201555446E+00
(PID.TID 0000.0001) %MON advcfl_vvel_max              =   1.0218201555446E+00
(PID.TID 0000.0001) %MON advcfl_wvel_max              =   3.4746817944873E-16
(PID.TID 0000.0001) %MON advcfl_W_hf_max              =   0.0000000000000E+00
(PID.TID 0000.0001) %MON ke_max                       =   7.4455150023606E+02
(PID.TID 0000.0001) %MON ke_mean                      =   4.9661803126781E+02
(PID.TID 0000.0001) %MON ke_volint                    =   2.5323489810542E+22
(PID.TID 0000.0001) %MON ke_volmean                   =   4.9663214534537E+02
(PID.TID 0000.0001) // =======================================================
(PID.TID 0000.0001) // End MONITOR dynamic field statistics
(PID.TID 0000.0001) // =======================================================
(PID.TID 0000.0001) // =======================================================
(PID.TID 0000.0001) // Begin MONITOR dynamic field statistics
(PID.TID 0000.0001) // =======================================================
(PID.TID 0000.0001) %MON time_tsnumber                =                   156
(PID.TID 0000.0001) %MON time_secondsf                =   5.6160000000000E+05
(PID.TID 0000.0001) %MON time_secondsi                =                561600
(PID.TID 0000.0001) %MON dynstat_eta_max              =   0.0000000000000E+00
(PID.TID 0000.0001) %MON dynstat_eta_min              =   0.0000000000000E+00
(PID.TID 0000.0001) %MON dynstat_eta_mean             =   0.0000000000000E+00
(PID.TID 0000.0001) %MON dynstat_eta_sd               =   0.0000000000000E+00
(PID.TID 0000.0001) %MON dynstat_eta_del2             =   0.0000000000000E+00
(PID.TID 0000.0001) %MON dynstat_uvel_max             =   3.8588909729170E+01
(PID.TID 0000.0001) %MON dynstat_uvel_min             =  -2.6640751857540E+01
(PID.TID 0000.0001) %MON dynstat_uvel_mean            =   1.1767582051515E+01
(PID.TID 0000.0001) %MON dynstat_uvel_sd              =   1.8925013763619E+01
(PID.TID 0000.0001) %MON dynstat_uvel_del2            =   3.3977035061841E-02
(PID.TID 0000.0001) %MON dynstat_vvel_max             =   3.8588909729170E+01
(PID.TID 0000.0001) %MON dynstat_vvel_min             =  -2.6640751857540E+01
(PID.TID 0000.0001) %MON dynstat_vvel_mean            =   1.1767582051515E+01
(PID.TID 0000.0001) %MON dynstat_vvel_sd              =   1.8925013763619E+01
(PID.TID 0000.0001) %MON dynstat_vvel_del2            =   3.3977035061841E-02
(PID.TID 0000.0001) %MON dynstat_wvel_max             =   4.8259469367879E-15
(PID.TID 0000.0001) %MON dynstat_wvel_min             =  -4.8259469367879E-15
(PID.TID 0000.0001) %MON dynstat_wvel_mean            =  -2.6408038640800E-34
(PID.TID 0000.0001) %MON dynstat_wvel_sd              =   1.3451301434752E-15
(PID.TID 0000.0001) %MON dynstat_wvel_del2            =   1.3733452540939E-15
(PID.TID 0000.0001) %MON dynstat_theta_max            =   1.8347922414834E+00
(PID.TID 0000.0001) %MON dynstat_theta_min            =   9.9987507905843E-01
(PID.TID 0000.0001) %MON dynstat_theta_mean           =   1.0066874826115E+00
(PID.TID 0000.0001) %MON dynstat_theta_sd             =   5.7136855999581E-02
(PID.TID 0000.0001) %MON dynstat_theta_del2           =   3.8601513114699E-04
(PID.TID 0000.0001) %MON dynstat_salt_max             =   1.8698060396740E+00
(PID.TID 0000.0001) %MON dynstat_salt_min             =   9.9962482909634E-01
(PID.TID 0000.0001) %MON dynstat_salt_mean            =   1.0067926570242E+00
(PID.TID 0000.0001) %MON dynstat_salt_sd              =   5.9036716098864E-02
(PID.TID 0000.0001) %MON dynstat_salt_del2            =   4.1502326360551E-04
(PID.TID 0000.0001) %MON advcfl_uvel_max              =   1.0218201555446E+00
(PID.TID 0000.0001) %MON advcfl_vvel_max              =   1.0218201555446E+00
(PID.TID 0000.0001) %MON advcfl_wvel_max              =   3.4746817944873E-16
(PID.TID 0000.0001) %MON advcfl_W_hf_max              =   0.0000000000000E+00
(PID.TID 0000.0001) %MON ke_max                       =   7.4455150023606E+02
(PID.TID 0000.0001) %MON ke_mean                      =   4.9661803126781E+02
(PID.TID 0000.0001) %MON ke_volint                    =   2.5323489810542E+22
(PID.TID 0000.0001) %MON ke_volmean                   =   4.9663214534537E+02
(PID.TID 0000.0001) // =======================================================
(PID.TID 0000.0001) // End MONITOR dynamic field statistics
(PID.TID 0000.0001) // =======================================================
(PID.TID 0000.0001) // =======================================================
(PID.TID 0000.0001) // Begin MONITOR dynamic field statistics
(PID.TID 0000.0001) // =======================================================
(PID.TID 0000.0001) %MON time_tsnumber                =                   162
(PID.TID 0000.0001) %MON time_secondsf                =   5.8320000000000E+05
(PID.TID 0000.0001) %MON time_secondsi                =                583200
(PID.TID 0000.0001) %MON dynstat_eta_max              =   0.0000000000000E+00
(PID.TID 0000.0001) %MON dynstat_eta_min              =   0.0000000000000E+00
(PID.TID 0000.0001) %MON dynstat_eta_mean             =   0.0000000000000E+00
(PID.TID 0000.0001) %MON dynstat_eta_sd               =   0.0000000000000E+00
(PID.TID 0000.0001) %MON dynstat_eta_del2             =   0.0000000000000E+00
(PID.TID 0000.0001) %MON dynstat_uvel_max             =   3.8588909729170E+01
(PID.TID 0000.0001) %MON dynstat_uvel_min             =  -2.6640751857540E+01
(PID.TID 0000.0001) %MON dynstat_uvel_mean            =   1.1767582051515E+01
(PID.TID 0000.0001) %MON dynstat_uvel_sd              =   1.8925013763619E+01
(PID.TID 0000.0001) %MON dynstat_uvel_del2            =   3.3977035061841E-02
(PID.TID 0000.0001) %MON dynstat_vvel_max             =   3.8588909729170E+01
(PID.TID 0000.0001) %MON dynstat_vvel_min             =  -2.6640751857540E+01
(PID.TID 0000.0001) %MON dynstat_vvel_mean            =   1.1767582051515E+01
(PID.TID 0000.0001) %MON dynstat_vvel_sd              =   1.8925013763619E+01
(PID.TID 0000.0001) %MON dynstat_vvel_del2            =   3.3977035061841E-02
(PID.TID 0000.0001) %MON dynstat_wvel_max             =   4.8259469367879E-15
(PID.TID 0000.0001) %MON dynstat_wvel_min             =  -4.8259469367879E-15
(PID.TID 0000.0001) %MON dynstat_wvel_mean            =  -2.6408038640800E-34
(PID.TID 0000.0001) %MON dynstat_wvel_sd              =   1.3451301434752E-15
(PID.TID 0000.0001) %MON dynstat_wvel_del2            =   1.3733452540939E-15
(PID.TID 0000.0001) %MON dynstat_theta_max            =   1.8301267705411E+00
(PID.TID 0000.0001) %MON dynstat_theta_min            =   9.9988545626016E-01
(PID.TID 0000.0001) %MON dynstat_theta_mean           =   1.0066874826115E+00
(PID.TID 0000.0001) %MON dynstat_theta_sd             =   5.6999244447176E-02
(PID.TID 0000.0001) %MON dynstat_theta_del2           =   3.8304132177400E-04
(PID.TID 0000.0001) %MON dynstat_salt_max             =   1.8642244353875E+00
(PID.TID 0000.0001) %MON dynstat_salt_min             =   9.9966822508033E-01
(PID.TID 0000.0001) %MON dynstat_salt_mean            =   1.0067745797519E+00
(PID.TID 0000.0001) %MON dynstat_salt_sd              =   5.8832835238996E-02
(PID.TID 0000.0001) %MON dynstat_salt_del2            =   4.1323455705338E-04
(PID.TID 0000.0001) %MON advcfl_uvel_max              =   1.0218201555446E+00
(PID.TID 0000.0001) %MON advcfl_vvel_max              =   1.0218201555446E+00
(PID.TID 0000.0001) %MON advcfl_wvel_max              =   3.4746817944873E-16
(PID.TID 0000.0001) %MON advcfl_W_hf_max              =   0.0000000000000E+00
(PID.TID 0000.0001) %MON ke_max                       =   7.4455150023606E+02
(PID.TID 0000.0001) %MON ke_mean                      =   4.9661803126781E+02
(PID.TID 0000.0001) %MON ke_volint                    =   2.5323489810542E+22
(PID.TID 0000.0001) %MON ke_volmean                   =   4.9663214534537E+02
(PID.TID 0000.0001) // =======================================================
(PID.TID 0000.0001) // End MONITOR dynamic field statistics
(PID.TID 0000.0001) // =======================================================
(PID.TID 0000.0001) // =======================================================
(PID.TID 0000.0001) // Begin MONITOR dynamic field statistics
(PID.TID 0000.0001) // =======================================================
(PID.TID 0000.0001) %MON time_tsnumber                =                   168
(PID.TID 0000.0001) %MON time_secondsf                =   6.0480000000000E+05
(PID.TID 0000.0001) %MON time_secondsi                =                604800
(PID.TID 0000.0001) %MON dynstat_eta_max              =   0.0000000000000E+00
(PID.TID 0000.0001) %MON dynstat_eta_min              =   0.0000000000000E+00
(PID.TID 0000.0001) %MON dynstat_eta_mean             =   0.0000000000000E+00
(PID.TID 0000.0001) %MON dynstat_eta_sd               =   0.0000000000000E+00
(PID.TID 0000.0001) %MON dynstat_eta_del2             =   0.0000000000000E+00
(PID.TID 0000.0001) %MON dynstat_uvel_max             =   3.8588909729170E+01
(PID.TID 0000.0001) %MON dynstat_uvel_min             =  -2.6640751857540E+01
(PID.TID 0000.0001) %MON dynstat_uvel_mean            =   1.1767582051515E+01
(PID.TID 0000.0001) %MON dynstat_uvel_sd              =   1.8925013763619E+01
(PID.TID 0000.0001) %MON dynstat_uvel_del2            =   3.3977035061841E-02
(PID.TID 0000.0001) %MON dynstat_vvel_max             =   3.8588909729170E+01
(PID.TID 0000.0001) %MON dynstat_vvel_min             =  -2.6640751857540E+01
(PID.TID 0000.0001) %MON dynstat_vvel_mean            =   1.1767582051515E+01
(PID.TID 0000.0001) %MON dynstat_vvel_sd              =   1.8925013763619E+01
(PID.TID 0000.0001) %MON dynstat_vvel_del2            =   3.3977035061841E-02
(PID.TID 0000.0001) %MON dynstat_wvel_max             =   4.8259469367879E-15
(PID.TID 0000.0001) %MON dynstat_wvel_min             =  -4.8259469367879E-15
(PID.TID 0000.0001) %MON dynstat_wvel_mean            =  -2.6408038640800E-34
(PID.TID 0000.0001) %MON dynstat_wvel_sd              =   1.3451301434752E-15
(PID.TID 0000.0001) %MON dynstat_wvel_del2            =   1.3733452540939E-15
(PID.TID 0000.0001) %MON dynstat_theta_max            =   1.8271107377314E+00
(PID.TID 0000.0001) %MON dynstat_theta_min            =   9.9990072869308E-01
(PID.TID 0000.0001) %MON dynstat_theta_mean           =   1.0066874826115E+00
(PID.TID 0000.0001) %MON dynstat_theta_sd             =   5.6871429891704E-02
(PID.TID 0000.0001) %MON dynstat_theta_del2           =   3.8487549574450E-04
(PID.TID 0000.0001) %MON dynstat_salt_max             =   1.8618541890506E+00
(PID.TID 0000.0001) %MON dynstat_salt_min             =   9.9971265493971E-01
(PID.TID 0000.0001) %MON dynstat_salt_mean            =   1.0067558506404E+00
(PID.TID 0000.0001) %MON dynstat_salt_sd              =   5.8610092915923E-02
(PID.TID 0000.0001) %MON dynstat_salt_del2            =   4.1410591127257E-04
(PID.TID 0000.0001) %MON advcfl_uvel_max              =   1.0218201555446E+00
(PID.TID 0000.0001) %MON advcfl_vvel_max              =   1.0218201555446E+00
(PID.TID 0000.0001) %MON advcfl_wvel_max              =   3.4746817944873E-16
(PID.TID 0000.0001) %MON advcfl_W_hf_max              =   0.0000000000000E+00
(PID.TID 0000.0001) %MON ke_max                       =   7.4455150023606E+02
(PID.TID 0000.0001) %MON ke_mean                      =   4.9661803126781E+02
(PID.TID 0000.0001) %MON ke_volint                    =   2.5323489810542E+22
(PID.TID 0000.0001) %MON ke_volmean                   =   4.9663214534537E+02
(PID.TID 0000.0001) // =======================================================
(PID.TID 0000.0001) // End MONITOR dynamic field statistics
(PID.TID 0000.0001) // =======================================================
(PID.TID 0000.0001) // =======================================================
(PID.TID 0000.0001) // Field Current uVel   at iteration        168
(PID.TID 0000.0001) // CMIN =         -2.664075185753955E+01
(PID.TID 0000.0001) // CMAX =          3.858890972916976E+01
(PID.TID 0000.0001) // CINT =          2.415913392100345E+00
(PID.TID 0000.0001) // SYMBOLS (CMIN->CMAX): -abcdefghijklmnopqrstuvwxyz+
(PID.TID 0000.0001) //                  0.0: .
(PID.TID 0000.0001) // RANGE I (Lo:Hi:Step):(   1: 192:   1)
(PID.TID 0000.0001) // RANGE J (Lo:Hi:Step):(  32:   1:  -1)
(PID.TID 0000.0001) // RANGE K (Lo:Hi:Step):(   1:   1:   1)
(PID.TID 0000.0001) // =======================================================
(PID.TID 0000.0001) K =   1
(PID.TID 0000.0001)                I=10      I=20      I=30      I=40      I=50      I=60      I=70      I=80      I=90      I=100     I=110     I=120     I=130     I=140     I=150     I=160     I=170     I=180     I=190
(PID.TID 0000.0001) |--J--|123456789|123456789|123456789|123456789|123456789|123456789|123456789|123456789|123456789|123456789|123456789|123456789|123456789|123456789|123456789|123456789|123456789|123456789|123456789|12
(PID.TID 0000.0001)     32 xwwwwwwwwwwwwwwwwwwwwwwwwwwwwwwwxwwwwwwwwwwwwwwwwwwwwwwwwwwwwwwwea-----------------------------aeijjkkkkkkkkkkkk.kkkkkkkkkkkkllmeijjkkkkkkkkkkkk.kkkkkkkkkkkkllmquvvvvvvvvvvvvvvvvvvvvvvvvvvvvvu
(PID.TID 0000.0001)     31 xxxxwwwwwwwwwwwwwwwwwwwwwwwwwxxxxxxxwwwwwwwwwwwwwwwwwwwwwwwwwxxxecbaaaaaaaaaaaaaaaaaaaaaaaaaaabcegiijjjjkkkkkkkk.kkkkkkkkllllmmoegiijjjjkkkkkkkk.kkkkkkkkllllmmoqstuuuuuuuuuuuuuuuuuuuuuuuuuuuts
(PID.TID 0000.0001)     30 yxxxxxxxxxxxxxxxxxxxxxxxxxxxxxxxyxxxxxxxxxxxxxxxxxxxxxxxxxxxxxxxedcbbbaaaaaaaaaaaaaaaaaaaaabbbcdeghiijjjjjkkkkkk.kkkkkklllllmmnpeghiijjjjjkkkkkk.kkkkkklllllmmnpqrstttuuuuuuuuuuuuuuuuuuuuutttsr
(PID.TID 0000.0001)     29 yyyyxxxxxxxxxxxxxxxxxxxxxxxxxyyyyyyyxxxxxxxxxxxxxxxxxxxxxxxxxyyyeddccbbbbbbbbbbbbbbbbbbbbbbbccddefghiijjjjjkkkkk.kkkkklllllmmnopefghiijjjjjkkkkk.kkkkklllllmmnopqrssstttttttttttttttttttttttsssr
(PID.TID 0000.0001)     28 yyyyyyyyyyyxxxxxxxxxxxyyyyyyyyyyyyyyyyyyyyyxxxxxxxxxxxyyyyyyyyyyfeddccccccbbbbbbbbbbbbbccccccddeffghiiijjjjjkkkk.kkkklllllmmnnopffghiiijjjjjkkkk.kkkklllllmmnnoppqrrssssstttttttttttttttsssssrrq
(PID.TID 0000.0001)     27 yyyyyyyyyyyyyyyyyyyyyyyyyyyyyyyyyyyyyyyyyyyyyyyyyyyyyyyyyyyyyyyyfeeddddcccccccccccccccccccddddeefgghhiijjjjjkkkk.kkkklllllmmnnoofgghhiijjjjjkkkk.kkkklllllmmnnoopqqrrrsssssssssssssssssssssrrrqq
(PID.TID 0000.0001)     26 zzzzyyyyyyyyyyyyyyyyyyyyyyyyyzzzzzzzyyyyyyyyyyyyyyyyyyyyyyyyyzzzffeeedddddddddddddddddddddddeeeffgghhiijjjjjkkkk.kkklllllmmmnnoofgghhiijjjjjkkkk.kkklllllmmmnnooppqqqrrrrrrrrrrrrrrrrrrrrrrrqqqp
(PID.TID 0000.0001)     25 zzzzzzzzzzzzzzzzzzzzzzzzzzzzzzzzzzzzzzzzzzzzzzzzzzzzzzzzzzzzzzzzgfffeeeeeeeedddddddddeeeeeeeefffgghhiiijjjjjkkkk.kkklllllmmmnnnogghhiiijjjjjkkkk.kkklllllmmmnnnoopppqqqqqqrrrrrrrrrrrrrqqqqqqppp
(PID.TID 0000.0001)     24 zzzzzzzzzzzzzzzzzzzzzzzzzzzzzzzzzzzzzzzzzzzzzzzzzzzzzzzzzzzzzzzzgggfffffeeeeeeeeeeeeeeeeefffffggghhhiiijjjjjkkkk.kkkllllllmmmnnnghhhiiijjjjjkkkk.kkkllllllmmmnnnoopppppqqqqqqqqqqqqqqqqqqqpppppo
(PID.TID 0000.0001)     23 zzzzzzzzzzzzzzzzzzzzzzzzzzzzzzzzzzzzzzzzzzzzzzzzzzzzzzzzzzzzzzzzhggggfffffffffffffffffffffffgggghhhiiiijjjjjkkkk.kkkklllllmmmmnnhhhiiiijjjjjkkkk.kkkklllllmmmmnnnoooopppppppppppppppppppppppoooo
(PID.TID 0000.0001)     22 zzzzzzzzzzzzzzzzzzzzzzzzzzzzzzzzzzzzzzzzzzzzzzzzzzzzzzzzzzzzzzzzhhhhggggggggggggggggggggggggghhhhhiiiijjjjjjkkkk.kkkkllllllmmmmnhhiiiijjjjjjkkkk.kkkkllllllmmmmnnnnooooooooooooooooooooooooooonn
(PID.TID 0000.0001)     21 ++++++++++++++++++++++++++++++++++++++++++++++++++++++++++++++++ihhhhhhhhhhggggggggggghhhhhhhhhhiiiiijjjjjjkkkkk.kkkkkllllllmmmmiiiiijjjjjjkkkkk.kkkkkllllllmmmmmnnnnnnnnnooooooooooooonnnnnnnnn
(PID.TID 0000.0001)     20 ++++++++++++++++++++++++++++++++++++++++++++++++++++++++++++++++iiiiiihhhhhhhhhhhhhhhhhhhhhiiiiiiiijjjjjjjkkkkkk.kkkkkklllllllmmiiijjjjjjjkkkkkk.kkkkkklllllllmmmmmmmmnnnnnnnnnnnnnnnnnnnnnmmmmm
(PID.TID 0000.0001)     19 ++++++++++++++++++++++++++++++++++++++++++++++++++++++++++++++++jjiiiiiiiiiiiiiiiiiiiiiiiiiiiiijjjjjjjjjkkkkkkkk.kkkkkkklllllllljjjjjjjjkkkkkkkk.kkkkkkkllllllllllmmmmmmmmmmmmmmmmmmmmmmmmmmmmml
(PID.TID 0000.0001)     18 ++++++++++++++++++++++++++++++++++++++++++++++++++++++++++++++++jjjjjjjjjjjjjjjjjjjjjjjjjjjjjjjjjjjjjkkkkkkkkkkk.kkkkkkkkkkklllljjjjjkkkkkkkkkkk.kkkkkkkkkkkllllllllllllllllllllllllllllllllllll
(PID.TID 0000.0001)     17 ++++++++++++++++++++++++++++++++++++++++++++++++++++++++++++++++kkkkkkkkkkkkkkkkkkkkkkkkkkkkkkkkkkkkkkkkkkkkkkkk.kkkkkkkkkkkkkkkkkkkkkkkkkkkkkkk.kkkkkkkkkkkkkkkkkkkkkkkkkkkkkkkkkkkkkkkkkkkkkkk
(PID.TID 0000.0001)     16 ++++++++++++++++++++++++++++++++++++++++++++++++++++++++++++++++kkkkkkkkkkkkkkkkkkkkkkkkkkkkkkkkkkkkkkkkkkkkkkkk.kkkkkkkkkkkkkkkkkkkkkkkkkkkkkkk.kkkkkkkkkkkkkkkkkkkkkkkkkkkkkkkkkkkkkkkkkkkkkkk
(PID.TID 0000.0001)     15 ++++++++++++++++++++++++++++++++++++++++++++++++++++++++++++++++lllllllllllllllllllllllllllllllllllllkkkkkkkkkkk.kkkkkkkkkkkjjjjlllllkkkkkkkkkkk.kkkkkkkkkkkjjjjjjjjjjjjjjjjjjjjjjjjjjjjjjjjjjjj
(PID.TID 0000.0001)     14 ++++++++++++++++++++++++++++++++++++++++++++++++++++++++++++++++llmmmmmmmmmmmmmmmmmmmmmmmmmmmmmllllllllllkkkkkkk.kkkkkkkkjjjjjjjlllllllllkkkkkkk.kkkkkkkkjjjjjjjjjiiiiiiiiiiiiiiiiiiiiiiiiiiiiij
(PID.TID 0000.0001)     13 ++++++++++++++++++++++++++++++++++++++++++++++++++++++++++++++++mmmmmmnnnnnnnnnnnnnnnnnnnnnmmmmmmmmlllllllkkkkkk.kkkkkkjjjjjjjiimmmlllllllkkkkkk.kkkkkkjjjjjjjiiiiiiiihhhhhhhhhhhhhhhhhhhhhiiiii
(PID.TID 0000.0001)     12 ++++++++++++++++++++++++++++++++++++++++++++++++++++++++++++++++mnnnnnnnnnooooooooooooonnnnnnnnnmmmmmllllllkkkkk.kkkkkjjjjjjiiiimmmmmllllllkkkkk.kkkkkjjjjjjiiiiihhhhhhhhhhggggggggggghhhhhhhhhh
(PID.TID 0000.0001)     11 zzzzzzzzzzzzzzzzzzzzzzzzzzzzzzzzzzzzzzzzzzzzzzzzzzzzzzzzzzzzzzzznnnooooooooooooooooooooooooooonnnnmmmmllllllkkkk.kkkkjjjjjjiiiihnnmmmmllllllkkkk.kkkkjjjjjjiiiihhhhhggggggggggggggggggggggggghhh
(PID.TID 0000.0001)     10 zzzzzzzzzzzzzzzzzzzzzzzzzzzzzzzzzzzzzzzzzzzzzzzzzzzzzzzzzzzzzzzznoooopppppppppppppppppppppppoooonnnmmmmlllllkkkk.kkkkjjjjjiiiihhnnnmmmmlllllkkkk.kkkkjjjjjiiiihhhggggfffffffffffffffffffffffgggg
(PID.TID 0000.0001)      9 zzzzzzzzzzzzzzzzzzzzzzzzzzzzzzzzzzzzzzzzzzzzzzzzzzzzzzzzzzzzzzzzoopppppqqqqqqqqqqqqqqqqqqqpppppoonnnmmmllllllkkk.kkkkjjjjjiiihhhonnnmmmllllllkkk.kkkkjjjjjiiihhhgggfffffeeeeeeeeeeeeeeeeefffffgg
(PID.TID 0000.0001)      8 zzzzzzzzzzzzzzzzzzzzzzzzzzzzzzzzzzzzzzzzzzzzzzzzzzzzzzzzzzzzzzzzopppqqqqqqrrrrrrrrrrrrrqqqqqqpppoonnnmmmlllllkkk.kkkkjjjjjiiihhgoonnnmmmlllllkkk.kkkkjjjjjiiihhggfffeeeeeeeedddddddddeeeeeeeefff
(PID.TID 0000.0001)      7 zzzzyyyyyyyyyyyyyyyyyyyyyyyyyzzzzzzzyyyyyyyyyyyyyyyyyyyyyyyyyzzzppqqqrrrrrrrrrrrrrrrrrrrrrrrqqqppoonnmmmlllllkkk.kkkkjjjjjiihhggpoonnmmmlllllkkk.kkkkjjjjjiihhggffeeedddddddddddddddddddddddeeef
(PID.TID 0000.0001)      6 yyyyyyyyyyyyyyyyyyyyyyyyyyyyyyyyyyyyyyyyyyyyyyyyyyyyyyyyyyyyyyyypqqrrrsssssssssssssssssssssrrrqqpoonnmmlllllkkkk.kkkkjjjjjiihhggpoonnmmlllllkkkk.kkkkjjjjjiihhggfeeddddcccccccccccccccccccddddee
(PID.TID 0000.0001)      5 yyyyyyyyyyyxxxxxxxxxxxyyyyyyyyyyyyyyyyyyyyyxxxxxxxxxxxyyyyyyyyyypqrrssssstttttttttttttttsssssrrqpponnmmlllllkkkk.kkkkjjjjjiiihgfpponnmmlllllkkkk.kkkkjjjjjiiihgffeddccccccbbbbbbbbbbbbbccccccdde
(PID.TID 0000.0001)      4 yyyyxxxxxxxxxxxxxxxxxxxxxxxxxyyyyyyyxxxxxxxxxxxxxxxxxxxxxxxxxyyyqrssstttttttttttttttttttttttsssrqponmmlllllkkkkk.kkkkkjjjjjiihgfqponmmlllllkkkkk.kkkkkjjjjjiihgfeddccbbbbbbbbbbbbbbbbbbbbbbbccdd
(PID.TID 0000.0001)      3 yxxxxxxxxxxxxxxxxxxxxxxxxxxxxxxxyxxxxxxxxxxxxxxxxxxxxxxxxxxxxxxxqrstttuuuuuuuuuuuuuuuuuuuuutttsrqpnmmlllllkkkkkk.kkkkkkjjjjjiihgqpnmmlllllkkkkkk.kkkkkkjjjjjiihgedcbbbaaaaaaaaaaaaaaaaaaaaabbbcd
(PID.TID 0000.0001)      2 xxxxwwwwwwwwwwwwwwwwwwwwwwwwwxxxxxxxwwwwwwwwwwwwwwwwwwwwwwwwwxxxqstuuuuuuuuuuuuuuuuuuuuuuuuuuutsqommllllkkkkkkkk.kkkkkkkkjjjjiigqommllllkkkkkkkk.kkkkkkkkjjjjiigecbaaaaaaaaaaaaaaaaaaaaaaaaaaabc
(PID.TID 0000.0001)      1 xwwwwwwwwwwwwwwwwwwwwwwwwwwwwwwwxwwwwwwwwwwwwwwwwwwwwwwwwwwwwwwwquvvvvvvvvvvvvvvvvvvvvvvvvvvvvvuqmllkkkkkkkkkkkk.kkkkkkkkkkkkjjiqmllkkkkkkkkkkkk.kkkkkkkkkkkkjjiea-----------------------------a
(PID.TID 0000.0001) // =======================================================
(PID.TID 0000.0001) // END OF FIELD                                          =
(PID.TID 0000.0001) // =======================================================
(PID.TID 0000.0001) 
(PID.TID 0000.0001) // =======================================================
(PID.TID 0000.0001) // Field Current vVel   at iteration        168
(PID.TID 0000.0001) // CMIN =         -2.664075185753955E+01
(PID.TID 0000.0001) // CMAX =          3.858890972916976E+01
(PID.TID 0000.0001) // CINT =          2.415913392100345E+00
(PID.TID 0000.0001) // SYMBOLS (CMIN->CMAX): -abcdefghijklmnopqrstuvwxyz+
(PID.TID 0000.0001) //                  0.0: .
(PID.TID 0000.0001) // RANGE I (Lo:Hi:Step):(   1: 192:   1)
(PID.TID 0000.0001) // RANGE J (Lo:Hi:Step):(  32:   1:  -1)
(PID.TID 0000.0001) // RANGE K (Lo:Hi:Step):(   1:   1:   1)
(PID.TID 0000.0001) // =======================================================
(PID.TID 0000.0001) K =   1
(PID.TID 0000.0001)                I=10      I=20      I=30      I=40      I=50      I=60      I=70      I=80      I=90      I=100     I=110     I=120     I=130     I=140     I=150     I=160     I=170     I=180     I=190
(PID.TID 0000.0001) |--J--|123456789|123456789|123456789|123456789|123456789|123456789|123456789|123456789|123456789|123456789|123456789|123456789|123456789|123456789|123456789|123456789|123456789|123456789|123456789|12
(PID.TID 0000.0001)     32 iggffggghhhiijjkkllmmnnnooopppomiggffggghhhiijjkkllmmnnnooopppomacddeeffgghhijjkkllmnnooppqqrrsuwxxyyyzzzzz++++++++++zzzzzyyyxxwwxxyyyzzzzz++++++++++zzzzzyyyxxwusrrqqppoonnmllkkjjihhggffeeddca
(PID.TID 0000.0001)     31 jihgggghhhiiijjkkllmmmnnnoooonmljihgggghhhiiijjkkllmmmnnnoooonml-bcddeefgghhiijkklmmnnoppqqrsstvwxxyyyzzzzz++++++++++zzzzzyyyxxwwxxyyyzzzzz++++++++++zzzzzyyyxxwvtssrqqpponnmmlkkjiihhggfeeddcb-
(PID.TID 0000.0001)     30 jiihhhhhhiiijjjkklllmmmnnnnnnmmljiihhhhhhiiijjjkklllmmmnnnnnnmml-abcddeffghhiijkklmmnooppqrrstuvwxxyyyzzzzz++++++++++zzzzzyyyxxwwxxyyyzzzzz++++++++++zzzzzyyyxxwvutsrrqppoonmmlkkjiihhgffeddcba-
(PID.TID 0000.0001)     29 kjiiihhiiiiijjjkklllmmmmnnnnmmlkkjiiihhiiiiijjjkklllmmmmnnnnmmlk-abccdeefgghiijkklmmnoopqqrsstuvwwxxyyyzzzz++++++++++zzzzyyyxxwwwwxxyyyzzzz++++++++++zzzzyyyxxwwvutssrqqpoonmmlkkjiihggfeedccba-
(PID.TID 0000.0001)     28 kjjiiiiiiiijjjkkkklllmmmmmmmmllkkjjiiiiiiiijjjkkkklllmmmmmmmmllk-abbcddeffghiijkklmmnoppqrrsttuvwwxxyyyzzzz++++++++++zzzzyyyxxwwwwxxyyyzzzz++++++++++zzzzyyyxxwwvuttsrrqpponmmlkkjiihgffeddcbba-
(PID.TID 0000.0001)     27 kjjjiiiiiijjjjkkkkllllmmmmmmlllkkjjjiiiiiijjjjkkkkllllmmmmmmlllk-aabcddeffghhijkklmnnoppqrsstuuvwwxxyyyzzzz++++++++++zzzzyyyxxwwwwxxyyyzzzz++++++++++zzzzyyyxxwwvuutssrqpponnmlkkjihhgffeddcbaa-
(PID.TID 0000.0001)     26 kjjjjjjjjjjjjjkkkkllllllmmlllllkkjjjjjjjjjjjjjkkkkllllllmmlllllk-aabccdeffghhijkklmnnopqqrsstuuvwwxxyyyzzzz++++++++++zzzzyyyxxwwwwxxyyyzzzz++++++++++zzzzyyyxxwwvuutssrqqponnmlkkjihhgffedccbaa-
(PID.TID 0000.0001)     25 kkjjjjjjjjjjjkkkkkllllllllllllkkkkjjjjjjjjjjjkkkkkllllllllllllkk-aabccdeefghhijkklmnnopqqrsstuuvwwxxyyyzzzz++++++++++zzzzyyyxxwwwwxxyyyzzzz++++++++++zzzzyyyxxwwvuutssrqqponnmlkkjihhgfeedccbaa-
(PID.TID 0000.0001)     24 kkjjjjjjjjjjjkkkkkklllllllllllkkkkjjjjjjjjjjjkkkkkklllllllllllkk-aabccdeefghhijkklmnnopqqrsttuuvwwxxyyyzzzz++++++++++zzzzyyyxxwwwwxxyyyzzzz++++++++++zzzzyyyxxwwvuuttsrqqponnmlkkjihhgfeedccbaa-
(PID.TID 0000.0001)     23 kkkjjjjjjjjjkkkkkkkklllllllllkkkkkkjjjjjjjjjkkkkkkkklllllllllkkk-aabbcdeefghhijkklmnoopqrrsttuuvwwxxyyyzzzz++++++++++zzzzyyyxxwwwwxxyyyzzzz++++++++++zzzzyyyxxwwvuuttsrrqpoonmlkkjihhgfeedcbbaa-
(PID.TID 0000.0001)     22 kkkkjjjjjjjkkkkkkkkkklllllllkkkkkkkkjjjjjjjkkkkkkkkkklllllllkkkk-aabbcdeefgghijkklmnoopqrrsttuuvwwxxxyyzzzz++++++++++zzzzyyxxxwwwwxxxyyzzzz++++++++++zzzzyyxxxwwvuuttsrrqpoonmlkkjihggfeedcbbaa-
(PID.TID 0000.0001)     21 kkkkkkkkkkkkkkkkkkkkkkklllkkkkkkkkkkkkkkkkkkkkkkkkkkkkklllkkkkkk-aabbcddefgghijkklmnoopqrrsttuuvwwxxxyyzzzz++++++++++zzzzyyxxxwwwwxxxyyzzzz++++++++++zzzzyyxxxwwvuuttsrrqpoonmlkkjihggfeddcbbaa-
(PID.TID 0000.0001)     20 kkkkkkkkkkkkkkkkkkkkkkkkkkkkkkkkkkkkkkkkkkkkkkkkkkkkkkkkkkkkkkkk-aabbcddefgghijkklmnoopqrrsttuuvwwxxxyyzzzz++++++++++zzzzyyxxxwwwwxxxyyzzzz++++++++++zzzzyyxxxwwvuuttsrrqpoonmlkkjihggfeddcbbaa-
(PID.TID 0000.0001)     19 kkkkkkkkkkkkkkkkkkkkkkkkkkkkkkkkkkkkkkkkkkkkkkkkkkkkkkkkkkkkkkkk-aabbcddefgghijkklmnoopqrrsttuuvwwxxxyyzzzz++++++++++zzzzyyxxxwwwwxxxyyzzzz++++++++++zzzzyyxxxwwvuuttsrrqpoonmlkkjihggfeddcbbaa-
(PID.TID 0000.0001)     18 kkkkkkkkkkkkkkkkkkkkkkkkkkkkkkkkkkkkkkkkkkkkkkkkkkkkkkkkkkkkkkkk-aabbcddefgghijkklmnoopqrrsttuuvwwxxxyyzzzz++++++++++zzzzyyxxxwwwwxxxyyzzzz++++++++++zzzzyyxxxwwvuuttsrrqpoonmlkkjihggfeddcbbaa-
(PID.TID 0000.0001)     17 ................................................................-aabbcddefgghijkklmnoopqrrsttuuvwwxxxyyzzzz++++++++++zzzzyyxxxwwwwxxxyyzzzz++++++++++zzzzyyxxxwwvuuttsrrqpoonmlkkjihggfeddcbbaa-
(PID.TID 0000.0001)     16 kkkkkkkkkkkkkkkkkkkkkkkkkkkkkkkkkkkkkkkkkkkkkkkkkkkkkkkkkkkkkkkk-aabbcddefgghijkklmnoopqrrsttuuvwwxxxyyzzzz++++++++++zzzzyyxxxwwwwxxxyyzzzz++++++++++zzzzyyxxxwwvuuttsrrqpoonmlkkjihggfeddcbbaa-
(PID.TID 0000.0001)     15 kkkkkkkkkkkkkkkkkkkkkkkkkkkkkkkkkkkkkkkkkkkkkkkkkkkkkkkkkkkkkkkk-aabbcddefgghijkklmnoopqrrsttuuvwwxxxyyzzzz++++++++++zzzzyyxxxwwwwxxxyyzzzz++++++++++zzzzyyxxxwwvuuttsrrqpoonmlkkjihggfeddcbbaa-
(PID.TID 0000.0001)     14 kkkkkkkkkkkkkkkkkkkkkkkkkkkkkkkkkkkkkkkkkkkkkkkkkkkkkkkkkkkkkkkk-aabbcddefgghijkklmnoopqrrsttuuvwwxxxyyzzzz++++++++++zzzzyyxxxwwwwxxxyyzzzz++++++++++zzzzyyxxxwwvuuttsrrqpoonmlkkjihggfeddcbbaa-
(PID.TID 0000.0001)     13 kkkkkklllkkkkkkkkkkkkkkkkkkkkkkkkkkkkklllkkkkkkkkkkkkkkkkkkkkkkk-aabbcddefgghijkklmnoopqrrsttuuvwwxxxyyzzzz++++++++++zzzzyyxxxwwwwxxxyyzzzz++++++++++zzzzyyxxxwwvuuttsrrqpoonmlkkjihggfeddcbbaa-
(PID.TID 0000.0001)     12 kkkklllllllkkkkkkkkkkjjjjjjjkkkkkkkklllllllkkkkkkkkkkjjjjjjjkkkk-aabbcdeefgghijkklmnoopqrrsttuuvwwxxxyyzzzz++++++++++zzzzyyxxxwwwwxxxyyzzzz++++++++++zzzzyyxxxwwvuuttsrrqpoonmlkkjihggfeedcbbaa-
(PID.TID 0000.0001)     11 kkklllllllllkkkkkkkkjjjjjjjjjkkkkkklllllllllkkkkkkkkjjjjjjjjjkkk-aabbcdeefghhijkklmnoopqrrsttuuvwwxxyyyzzzz++++++++++zzzzyyyxxwwwwxxyyyzzzz++++++++++zzzzyyyxxwwvuuttsrrqpoonmlkkjihhgfeedcbbaa-
(PID.TID 0000.0001)     10 kklllllllllllkkkkkkjjjjjjjjjjjkkkklllllllllllkkkkkkjjjjjjjjjjjkk-aabccdeefghhijkklmnnopqqrsttuuvwwxxyyyzzzz++++++++++zzzzyyyxxwwwwxxyyyzzzz++++++++++zzzzyyyxxwwvuuttsrqqponnmlkkjihhgfeedccbaa-
(PID.TID 0000.0001)      9 kkllllllllllllkkkkkjjjjjjjjjjjkkkkllllllllllllkkkkkjjjjjjjjjjjkk-aabccdeefghhijkklmnnopqqrsstuuvwwxxyyyzzzz++++++++++zzzzyyyxxwwwwxxyyyzzzz++++++++++zzzzyyyxxwwvuutssrqqponnmlkkjihhgfeedccbaa-
(PID.TID 0000.0001)      8 klllllmmllllllkkkkjjjjjjjjjjjjjkklllllmmllllllkkkkjjjjjjjjjjjjjk-aabccdeffghhijkklmnnopqqrsstuuvwwxxyyyzzzz++++++++++zzzzyyyxxwwwwxxyyyzzzz++++++++++zzzzyyyxxwwvuutssrqqponnmlkkjihhgffedccbaa-
(PID.TID 0000.0001)      7 klllmmmmmmllllkkkkjjjjiiiiiijjjkklllmmmmmmllllkkkkjjjjiiiiiijjjk-aabcddeffghhijkklmnnoppqrsstuuvwwxxyyyzzzz++++++++++zzzzyyyxxwwwwxxyyyzzzz++++++++++zzzzyyyxxwwvuutssrqpponnmlkkjihhgffeddcbaa-
(PID.TID 0000.0001)      6 kllmmmmmmmmlllkkkkjjjiiiiiiiijjkkllmmmmmmmmlllkkkkjjjiiiiiiiijjk-abbcddeffghiijkklmmnoppqrrsttuvwwxxyyyzzzz++++++++++zzzzyyyxxwwwwxxyyyzzzz++++++++++zzzzyyyxxwwvuttsrrqpponmmlkkjiihgffeddcbba-
(PID.TID 0000.0001)      5 klmmnnnnmmmmlllkkjjjiiiiihhiiijkklmmnnnnmmmmlllkkjjjiiiiihhiiijk-abccdeefgghiijkklmmnoopqqrsstuvwwxxyyyzzzz++++++++++zzzzyyyxxwwwwxxyyyzzzz++++++++++zzzzyyyxxwwvutssrqqpoonmmlkkjiihggfeedccba-
(PID.TID 0000.0001)      4 lmmnnnnnnmmmlllkkjjjiiihhhhhhiijlmmnnnnnnmmmlllkkjjjiiihhhhhhiij-abcddeffghhiijkklmmnooppqrrstuvwxxyyyzzzzz++++++++++zzzzzyyyxxwwxxyyyzzzzz++++++++++zzzzzyyyxxwvutsrrqppoonmmlkkjiihhgffeddcba-
(PID.TID 0000.0001)      3 lmnoooonnnmmmllkkjjiiihhhgggghijlmnoooonnnmmmllkkjjiiihhhgggghij-bcddeefgghhiijkklmmnnoppqqrsstvwxxyyyzzzzz++++++++++zzzzzyyyxxwwxxyyyzzzzz++++++++++zzzzzyyyxxwvtssrqqpponnmmlkkjiihhggfeeddcb-
(PID.TID 0000.0001)      2 mopppooonnnmmllkkjjiihhhgggffggimopppooonnnmmllkkjjiihhhgggffggiacddeeffgghhijjkkllmnnooppqqrrsuwxxyyyzzzzz++++++++++zzzzzyyyxxwwxxyyyzzzzz++++++++++zzzzzyyyxxwusrrqqppoonnmllkkjjihhggffeeddca
(PID.TID 0000.0001)      1 qqqqpppoonnmmllkkjjiihhggfffeeeeqqqqpppoonnmmllkkjjiihhggfffeeeeeeeefffgghhiijjkkllmmnnoopppqqqqxxyyyyzzzzz++++++++++zzzzzyyyyxxxxyyyyzzzzz++++++++++zzzzzyyyyxxqqqqpppoonnmmllkkjjiihhggfffeeee
(PID.TID 0000.0001) // =======================================================
(PID.TID 0000.0001) // END OF FIELD                                          =
(PID.TID 0000.0001) // =======================================================
(PID.TID 0000.0001) 
(PID.TID 0000.0001) // =======================================================
(PID.TID 0000.0001) // Field Current theta  at iteration        168
(PID.TID 0000.0001) // CMIN =          9.999007286930769E-01
(PID.TID 0000.0001) // CMAX =          1.827110737731386E+00
(PID.TID 0000.0001) // CINT =          3.063740774215960E-02
(PID.TID 0000.0001) // SYMBOLS (CMIN->CMAX): -abcdefghijklmnopqrstuvwxyz+
(PID.TID 0000.0001) //                  0.0: .
(PID.TID 0000.0001) // RANGE I (Lo:Hi:Step):(   1: 192:   1)
(PID.TID 0000.0001) // RANGE J (Lo:Hi:Step):(  32:   1:  -1)
(PID.TID 0000.0001) // RANGE K (Lo:Hi:Step):(   1:   1:   1)
(PID.TID 0000.0001) // =======================================================
(PID.TID 0000.0001) K =   1
(PID.TID 0000.0001)                I=10      I=20      I=30      I=40      I=50      I=60      I=70      I=80      I=90      I=100     I=110     I=120     I=130     I=140     I=150     I=160     I=170     I=180     I=190
(PID.TID 0000.0001) |--J--|123456789|123456789|123456789|123456789|123456789|123456789|123456789|123456789|123456789|123456789|123456789|123456789|123456789|123456789|123456789|123456789|123456789|123456789|123456789|12
(PID.TID 0000.0001)     32 -------------------------------------------------------------------------------------------------------------------------------------------abceffecba-------------------------------------------
(PID.TID 0000.0001)     31 -------------------------------------------------------------------------------------------------------------------------------------------bdgjkkjgdb-------------------------------------------
(PID.TID 0000.0001)     30 -------------------------------------------------------------------------------------------------------------------------------------------cfkoqqokfc-------------------------------------------
(PID.TID 0000.0001)     29 ------------------------------------------------------------------------------------------------------------------------------------------adiotwwtoida------------------------------------------
(PID.TID 0000.0001)     28 ------------------------------------------------------------------------------------------------------------------------------------------adjqwzzwqjda------------------------------------------
(PID.TID 0000.0001)     27 ------------------------------------------------------------------------------------------------------------------------------------------adjqx++xqjda------------------------------------------
(PID.TID 0000.0001)     26 ------------------------------------------------------------------------------------------------------------------------------------------adjqwzzwqjda------------------------------------------
(PID.TID 0000.0001)     25 -------------------------------------------------------------------------------------------------------------------------------------------chntwwtnhc-------------------------------------------
(PID.TID 0000.0001)     24 -------------------------------------------------------------------------------------------------------------------------------------------bfkoqqokfb-------------------------------------------
(PID.TID 0000.0001)     23 -------------------------------------------------------------------------------------------------------------------------------------------acfikkifca-------------------------------------------
(PID.TID 0000.0001)     22 --------------------------------------------------------------------------------------------------------------------------------------------acdeedca--------------------------------------------
(PID.TID 0000.0001)     21 ---------------------------------------------------------------------------------------------------------------------------------------------aaaaaa---------------------------------------------
(PID.TID 0000.0001)     20 ------------------------------------------------------------------------------------------------------------------------------------------------------------------------------------------------
(PID.TID 0000.0001)     19 a-----------------------------------------------------------------------------------------------------------------------------------------------------------------------------------------------
(PID.TID 0000.0001)     18 b-----------------------------------------------------------------------------------------------------------------------------------------------------------------------------------------------
(PID.TID 0000.0001)     17 b-----------------------------------------------------------------------------------------------------------------------------------------------------------------------------------------------
(PID.TID 0000.0001)     16 b-----------------------------------------------------------------------------------------------------------------------------------------------------------------------------------------------
(PID.TID 0000.0001)     15 b-----------------------------------------------------------------------------------------------------------------------------------------------------------------------------------------------
(PID.TID 0000.0001)     14 a-----------------------------------------------------------------------------------------------------------------------------------------------------------------------------------------------
(PID.TID 0000.0001)     13 ------------------------------------------------------------------------------------------------------------------------------------------------------------------------------------------------
(PID.TID 0000.0001)     12 ------------------------------------------------------------------------------------------------------------------------------------------------------------------------------------------------
(PID.TID 0000.0001)     11 ------------------------------------------------------------------------------------------------------------------------------------------------------------------------------------------------
(PID.TID 0000.0001)     10 ------------------------------------------------------------------------------------------------------------------------------------------------------------------------------------------------
(PID.TID 0000.0001)      9 ------------------------------------------------------------------------------------------------------------------------------------------------------------------------------------------------
(PID.TID 0000.0001)      8 ------------------------------------------------------------------------------------------------------------------------------------------------------------------------------------------------
(PID.TID 0000.0001)      7 ------------------------------------------------------------------------------------------------------------------------------------------------------------------------------------------------
(PID.TID 0000.0001)      6 ------------------------------------------------------------------------------------------------------------------------------------------------------------------------------------------------
(PID.TID 0000.0001)      5 ------------------------------------------------------------------------------------------------------------------------------------------------------------------------------------------------
(PID.TID 0000.0001)      4 ------------------------------------------------------------------------------------------------------------------------------------------------------------------------------------------------
(PID.TID 0000.0001)      3 ------------------------------------------------------------------------------------------------------------------------------------------------------------------------------------------------
(PID.TID 0000.0001)      2 ------------------------------------------------------------------------------------------------------------------------------------------------------------------------------------------------
(PID.TID 0000.0001)      1 ------------------------------------------------------------------------------------------------------------------------------------------------------------------------------------------------
(PID.TID 0000.0001) // =======================================================
(PID.TID 0000.0001) // END OF FIELD                                          =
(PID.TID 0000.0001) // =======================================================
(PID.TID 0000.0001) 
(PID.TID 0000.0001) // =======================================================
(PID.TID 0000.0001) // Field Current etaN   at iteration        168
(PID.TID 0000.0001) // CMIN =          1.000000000000000E+32
(PID.TID 0000.0001) // CMAX =         -1.000000000000000E+32
(PID.TID 0000.0001) // CINT =          0.000000000000000E+00
(PID.TID 0000.0001) // SYMBOLS (CMIN->CMAX): -abcdefghijklmnopqrstuvwxyz+
(PID.TID 0000.0001) //                  0.0: .
(PID.TID 0000.0001) // RANGE I (Lo:Hi:Step):(  -2: 195:   1)
(PID.TID 0000.0001) // RANGE J (Lo:Hi:Step):(  35:  -2:  -1)
(PID.TID 0000.0001) // RANGE K (Lo:Hi:Step):(   1:   1:   1)
(PID.TID 0000.0001) // =======================================================
(PID.TID 0000.0001) K =   1
(PID.TID 0000.0001)                I=7       I=17      I=27      I=31      I=41      I=51      I=61      I=65      I=75      I=85      I=95      I=99      I=109     I=119     I=129     I=133     I=143     I=153     I=163     I=167     I=177     I=187
(PID.TID 0000.0001) |--J--|**0123456|890123456|890123456|890123450|234567890|234567890|234567890|234567234|678901234|678901234|678901234|678945678|012345678|012345678|012345678|016789012|456789012|456789012|456789012|890123456|890123456|890123456|89012345
(PID.TID 0000.0001)     35 ....................................................................................................................................................................................................................................
(PID.TID 0000.0001)     34 ....................................................................................................................................................................................................................................
(PID.TID 0000.0001)     33 ....................................................................................................................................................................................................................................
(PID.TID 0000.0001)     32 ....................................................................................................................................................................................................................................
(PID.TID 0000.0001)     31 ....................................................................................................................................................................................................................................
(PID.TID 0000.0001)     30 ....................................................................................................................................................................................................................................
(PID.TID 0000.0001)     29 ....................................................................................................................................................................................................................................
(PID.TID 0000.0001)     28 ....................................................................................................................................................................................................................................
(PID.TID 0000.0001)     27 ....................................................................................................................................................................................................................................
(PID.TID 0000.0001)     26 ....................................................................................................................................................................................................................................
(PID.TID 0000.0001)     25 ....................................................................................................................................................................................................................................
(PID.TID 0000.0001)     24 ....................................................................................................................................................................................................................................
(PID.TID 0000.0001)     23 ....................................................................................................................................................................................................................................
(PID.TID 0000.0001)     22 ....................................................................................................................................................................................................................................
(PID.TID 0000.0001)     21 ....................................................................................................................................................................................................................................
(PID.TID 0000.0001)     20 ....................................................................................................................................................................................................................................
(PID.TID 0000.0001)     19 ....................................................................................................................................................................................................................................
(PID.TID 0000.0001)     18 ....................................................................................................................................................................................................................................
(PID.TID 0000.0001)     17 ....................................................................................................................................................................................................................................
(PID.TID 0000.0001)     16 ....................................................................................................................................................................................................................................
(PID.TID 0000.0001)     15 ....................................................................................................................................................................................................................................
(PID.TID 0000.0001)     14 ....................................................................................................................................................................................................................................
(PID.TID 0000.0001)     13 ....................................................................................................................................................................................................................................
(PID.TID 0000.0001)     12 ....................................................................................................................................................................................................................................
(PID.TID 0000.0001)     11 ....................................................................................................................................................................................................................................
(PID.TID 0000.0001)     10 ....................................................................................................................................................................................................................................
(PID.TID 0000.0001)      9 ....................................................................................................................................................................................................................................
(PID.TID 0000.0001)      8 ....................................................................................................................................................................................................................................
(PID.TID 0000.0001)      7 ....................................................................................................................................................................................................................................
(PID.TID 0000.0001)      6 ....................................................................................................................................................................................................................................
(PID.TID 0000.0001)      5 ....................................................................................................................................................................................................................................
(PID.TID 0000.0001)      4 ....................................................................................................................................................................................................................................
(PID.TID 0000.0001)      3 ....................................................................................................................................................................................................................................
(PID.TID 0000.0001)      2 ....................................................................................................................................................................................................................................
(PID.TID 0000.0001)      1 ....................................................................................................................................................................................................................................
(PID.TID 0000.0001)      0 ....................................................................................................................................................................................................................................
(PID.TID 0000.0001)     -1 ....................................................................................................................................................................................................................................
(PID.TID 0000.0001)     -2 ....................................................................................................................................................................................................................................
(PID.TID 0000.0001) // =======================================================
(PID.TID 0000.0001) // END OF FIELD                                          =
(PID.TID 0000.0001) // =======================================================
(PID.TID 0000.0001) 
(PID.TID 0000.0001) // =======================================================
(PID.TID 0000.0001) // Begin MONITOR dynamic field statistics
(PID.TID 0000.0001) // =======================================================
(PID.TID 0000.0001) %MON time_tsnumber                =                   174
(PID.TID 0000.0001) %MON time_secondsf                =   6.2640000000000E+05
(PID.TID 0000.0001) %MON time_secondsi                =                626400
(PID.TID 0000.0001) %MON dynstat_eta_max              =   0.0000000000000E+00
(PID.TID 0000.0001) %MON dynstat_eta_min              =   0.0000000000000E+00
(PID.TID 0000.0001) %MON dynstat_eta_mean             =   0.0000000000000E+00
(PID.TID 0000.0001) %MON dynstat_eta_sd               =   0.0000000000000E+00
(PID.TID 0000.0001) %MON dynstat_eta_del2             =   0.0000000000000E+00
(PID.TID 0000.0001) %MON dynstat_uvel_max             =   3.8588909729170E+01
(PID.TID 0000.0001) %MON dynstat_uvel_min             =  -2.6640751857540E+01
(PID.TID 0000.0001) %MON dynstat_uvel_mean            =   1.1767582051515E+01
(PID.TID 0000.0001) %MON dynstat_uvel_sd              =   1.8925013763619E+01
(PID.TID 0000.0001) %MON dynstat_uvel_del2            =   3.3977035061841E-02
(PID.TID 0000.0001) %MON dynstat_vvel_max             =   3.8588909729170E+01
(PID.TID 0000.0001) %MON dynstat_vvel_min             =  -2.6640751857540E+01
(PID.TID 0000.0001) %MON dynstat_vvel_mean            =   1.1767582051515E+01
(PID.TID 0000.0001) %MON dynstat_vvel_sd              =   1.8925013763619E+01
(PID.TID 0000.0001) %MON dynstat_vvel_del2            =   3.3977035061841E-02
(PID.TID 0000.0001) %MON dynstat_wvel_max             =   4.8259469367879E-15
(PID.TID 0000.0001) %MON dynstat_wvel_min             =  -4.8259469367879E-15
(PID.TID 0000.0001) %MON dynstat_wvel_mean            =  -2.6408038640800E-34
(PID.TID 0000.0001) %MON dynstat_wvel_sd              =   1.3451301434752E-15
(PID.TID 0000.0001) %MON dynstat_wvel_del2            =   1.3733452540939E-15
(PID.TID 0000.0001) %MON dynstat_theta_max            =   1.8251193099040E+00
(PID.TID 0000.0001) %MON dynstat_theta_min            =   9.9991002279612E-01
(PID.TID 0000.0001) %MON dynstat_theta_mean           =   1.0066874826115E+00
(PID.TID 0000.0001) %MON dynstat_theta_sd             =   5.6753846398339E-02
(PID.TID 0000.0001) %MON dynstat_theta_del2           =   3.8226033208308E-04
(PID.TID 0000.0001) %MON dynstat_salt_max             =   1.8592603817771E+00
(PID.TID 0000.0001) %MON dynstat_salt_min             =   9.9974804226279E-01
(PID.TID 0000.0001) %MON dynstat_salt_mean            =   1.0067575260577E+00
(PID.TID 0000.0001) %MON dynstat_salt_sd              =   5.8480826905864E-02
(PID.TID 0000.0001) %MON dynstat_salt_del2            =   4.1580413901069E-04
(PID.TID 0000.0001) %MON advcfl_uvel_max              =   1.0218201555446E+00
(PID.TID 0000.0001) %MON advcfl_vvel_max              =   1.0218201555446E+00
(PID.TID 0000.0001) %MON advcfl_wvel_max              =   3.4746817944873E-16
(PID.TID 0000.0001) %MON advcfl_W_hf_max              =   0.0000000000000E+00
(PID.TID 0000.0001) %MON ke_max                       =   7.4455150023606E+02
(PID.TID 0000.0001) %MON ke_mean                      =   4.9661803126781E+02
(PID.TID 0000.0001) %MON ke_volint                    =   2.5323489810542E+22
(PID.TID 0000.0001) %MON ke_volmean                   =   4.9663214534537E+02
(PID.TID 0000.0001) // =======================================================
(PID.TID 0000.0001) // End MONITOR dynamic field statistics
(PID.TID 0000.0001) // =======================================================
(PID.TID 0000.0001) // =======================================================
(PID.TID 0000.0001) // Begin MONITOR dynamic field statistics
(PID.TID 0000.0001) // =======================================================
(PID.TID 0000.0001) %MON time_tsnumber                =                   180
(PID.TID 0000.0001) %MON time_secondsf                =   6.4800000000000E+05
(PID.TID 0000.0001) %MON time_secondsi                =                648000
(PID.TID 0000.0001) %MON dynstat_eta_max              =   0.0000000000000E+00
(PID.TID 0000.0001) %MON dynstat_eta_min              =   0.0000000000000E+00
(PID.TID 0000.0001) %MON dynstat_eta_mean             =   0.0000000000000E+00
(PID.TID 0000.0001) %MON dynstat_eta_sd               =   0.0000000000000E+00
(PID.TID 0000.0001) %MON dynstat_eta_del2             =   0.0000000000000E+00
(PID.TID 0000.0001) %MON dynstat_uvel_max             =   3.8588909729170E+01
(PID.TID 0000.0001) %MON dynstat_uvel_min             =  -2.6640751857540E+01
(PID.TID 0000.0001) %MON dynstat_uvel_mean            =   1.1767582051515E+01
(PID.TID 0000.0001) %MON dynstat_uvel_sd              =   1.8925013763619E+01
(PID.TID 0000.0001) %MON dynstat_uvel_del2            =   3.3977035061841E-02
(PID.TID 0000.0001) %MON dynstat_vvel_max             =   3.8588909729170E+01
(PID.TID 0000.0001) %MON dynstat_vvel_min             =  -2.6640751857540E+01
(PID.TID 0000.0001) %MON dynstat_vvel_mean            =   1.1767582051515E+01
(PID.TID 0000.0001) %MON dynstat_vvel_sd              =   1.8925013763619E+01
(PID.TID 0000.0001) %MON dynstat_vvel_del2            =   3.3977035061841E-02
(PID.TID 0000.0001) %MON dynstat_wvel_max             =   4.8259469367879E-15
(PID.TID 0000.0001) %MON dynstat_wvel_min             =  -4.8259469367879E-15
(PID.TID 0000.0001) %MON dynstat_wvel_mean            =  -2.6408038640800E-34
(PID.TID 0000.0001) %MON dynstat_wvel_sd              =   1.3451301434752E-15
(PID.TID 0000.0001) %MON dynstat_wvel_del2            =   1.3733452540939E-15
(PID.TID 0000.0001) %MON dynstat_theta_max            =   1.8202604656970E+00
(PID.TID 0000.0001) %MON dynstat_theta_min            =   9.9991750290996E-01
(PID.TID 0000.0001) %MON dynstat_theta_mean           =   1.0066874826115E+00
(PID.TID 0000.0001) %MON dynstat_theta_sd             =   5.6645736282318E-02
(PID.TID 0000.0001) %MON dynstat_theta_del2           =   3.7930124702473E-04
(PID.TID 0000.0001) %MON dynstat_salt_max             =   1.8581282286318E+00
(PID.TID 0000.0001) %MON dynstat_salt_min             =   9.9976339966858E-01
(PID.TID 0000.0001) %MON dynstat_salt_mean            =   1.0067895899794E+00
(PID.TID 0000.0001) %MON dynstat_salt_sd              =   5.8633023206300E-02
(PID.TID 0000.0001) %MON dynstat_salt_del2            =   4.0921420040768E-04
(PID.TID 0000.0001) %MON advcfl_uvel_max              =   1.0218201555446E+00
(PID.TID 0000.0001) %MON advcfl_vvel_max              =   1.0218201555446E+00
(PID.TID 0000.0001) %MON advcfl_wvel_max              =   3.4746817944873E-16
(PID.TID 0000.0001) %MON advcfl_W_hf_max              =   0.0000000000000E+00
(PID.TID 0000.0001) %MON ke_max                       =   7.4455150023606E+02
(PID.TID 0000.0001) %MON ke_mean                      =   4.9661803126781E+02
(PID.TID 0000.0001) %MON ke_volint                    =   2.5323489810542E+22
(PID.TID 0000.0001) %MON ke_volmean                   =   4.9663214534537E+02
(PID.TID 0000.0001) // =======================================================
(PID.TID 0000.0001) // End MONITOR dynamic field statistics
(PID.TID 0000.0001) // =======================================================
(PID.TID 0000.0001) // =======================================================
(PID.TID 0000.0001) // Begin MONITOR dynamic field statistics
(PID.TID 0000.0001) // =======================================================
(PID.TID 0000.0001) %MON time_tsnumber                =                   186
(PID.TID 0000.0001) %MON time_secondsf                =   6.6960000000000E+05
(PID.TID 0000.0001) %MON time_secondsi                =                669600
(PID.TID 0000.0001) %MON dynstat_eta_max              =   0.0000000000000E+00
(PID.TID 0000.0001) %MON dynstat_eta_min              =   0.0000000000000E+00
(PID.TID 0000.0001) %MON dynstat_eta_mean             =   0.0000000000000E+00
(PID.TID 0000.0001) %MON dynstat_eta_sd               =   0.0000000000000E+00
(PID.TID 0000.0001) %MON dynstat_eta_del2             =   0.0000000000000E+00
(PID.TID 0000.0001) %MON dynstat_uvel_max             =   3.8588909729170E+01
(PID.TID 0000.0001) %MON dynstat_uvel_min             =  -2.6640751857540E+01
(PID.TID 0000.0001) %MON dynstat_uvel_mean            =   1.1767582051515E+01
(PID.TID 0000.0001) %MON dynstat_uvel_sd              =   1.8925013763619E+01
(PID.TID 0000.0001) %MON dynstat_uvel_del2            =   3.3977035061841E-02
(PID.TID 0000.0001) %MON dynstat_vvel_max             =   3.8588909729170E+01
(PID.TID 0000.0001) %MON dynstat_vvel_min             =  -2.6640751857540E+01
(PID.TID 0000.0001) %MON dynstat_vvel_mean            =   1.1767582051515E+01
(PID.TID 0000.0001) %MON dynstat_vvel_sd              =   1.8925013763619E+01
(PID.TID 0000.0001) %MON dynstat_vvel_del2            =   3.3977035061841E-02
(PID.TID 0000.0001) %MON dynstat_wvel_max             =   4.8259469367879E-15
(PID.TID 0000.0001) %MON dynstat_wvel_min             =  -4.8259469367879E-15
(PID.TID 0000.0001) %MON dynstat_wvel_mean            =  -2.6408038640800E-34
(PID.TID 0000.0001) %MON dynstat_wvel_sd              =   1.3451301434752E-15
(PID.TID 0000.0001) %MON dynstat_wvel_del2            =   1.3733452540939E-15
(PID.TID 0000.0001) %MON dynstat_theta_max            =   1.8196304396056E+00
(PID.TID 0000.0001) %MON dynstat_theta_min            =   9.9992246048466E-01
(PID.TID 0000.0001) %MON dynstat_theta_mean           =   1.0066874826115E+00
(PID.TID 0000.0001) %MON dynstat_theta_sd             =   5.6537961374760E-02
(PID.TID 0000.0001) %MON dynstat_theta_del2           =   3.8006917652547E-04
(PID.TID 0000.0001) %MON dynstat_salt_max             =   1.8591381870691E+00
(PID.TID 0000.0001) %MON dynstat_salt_min             =   9.9977830401976E-01
(PID.TID 0000.0001) %MON dynstat_salt_mean            =   1.0068341113317E+00
(PID.TID 0000.0001) %MON dynstat_salt_sd              =   5.8875419219280E-02
(PID.TID 0000.0001) %MON dynstat_salt_del2            =   4.0837388986283E-04
(PID.TID 0000.0001) %MON advcfl_uvel_max              =   1.0218201555446E+00
(PID.TID 0000.0001) %MON advcfl_vvel_max              =   1.0218201555446E+00
(PID.TID 0000.0001) %MON advcfl_wvel_max              =   3.4746817944873E-16
(PID.TID 0000.0001) %MON advcfl_W_hf_max              =   0.0000000000000E+00
(PID.TID 0000.0001) %MON ke_max                       =   7.4455150023606E+02
(PID.TID 0000.0001) %MON ke_mean                      =   4.9661803126781E+02
(PID.TID 0000.0001) %MON ke_volint                    =   2.5323489810542E+22
(PID.TID 0000.0001) %MON ke_volmean                   =   4.9663214534537E+02
(PID.TID 0000.0001) // =======================================================
(PID.TID 0000.0001) // End MONITOR dynamic field statistics
(PID.TID 0000.0001) // =======================================================
(PID.TID 0000.0001) // =======================================================
(PID.TID 0000.0001) // Begin MONITOR dynamic field statistics
(PID.TID 0000.0001) // =======================================================
(PID.TID 0000.0001) %MON time_tsnumber                =                   192
(PID.TID 0000.0001) %MON time_secondsf                =   6.9120000000000E+05
(PID.TID 0000.0001) %MON time_secondsi                =                691200
(PID.TID 0000.0001) %MON dynstat_eta_max              =   0.0000000000000E+00
(PID.TID 0000.0001) %MON dynstat_eta_min              =   0.0000000000000E+00
(PID.TID 0000.0001) %MON dynstat_eta_mean             =   0.0000000000000E+00
(PID.TID 0000.0001) %MON dynstat_eta_sd               =   0.0000000000000E+00
(PID.TID 0000.0001) %MON dynstat_eta_del2             =   0.0000000000000E+00
(PID.TID 0000.0001) %MON dynstat_uvel_max             =   3.8588909729170E+01
(PID.TID 0000.0001) %MON dynstat_uvel_min             =  -2.6640751857540E+01
(PID.TID 0000.0001) %MON dynstat_uvel_mean            =   1.1767582051515E+01
(PID.TID 0000.0001) %MON dynstat_uvel_sd              =   1.8925013763619E+01
(PID.TID 0000.0001) %MON dynstat_uvel_del2            =   3.3977035061841E-02
(PID.TID 0000.0001) %MON dynstat_vvel_max             =   3.8588909729170E+01
(PID.TID 0000.0001) %MON dynstat_vvel_min             =  -2.6640751857540E+01
(PID.TID 0000.0001) %MON dynstat_vvel_mean            =   1.1767582051515E+01
(PID.TID 0000.0001) %MON dynstat_vvel_sd              =   1.8925013763619E+01
(PID.TID 0000.0001) %MON dynstat_vvel_del2            =   3.3977035061841E-02
(PID.TID 0000.0001) %MON dynstat_wvel_max             =   4.8259469367879E-15
(PID.TID 0000.0001) %MON dynstat_wvel_min             =  -4.8259469367879E-15
(PID.TID 0000.0001) %MON dynstat_wvel_mean            =  -2.6408038640800E-34
(PID.TID 0000.0001) %MON dynstat_wvel_sd              =   1.3451301434752E-15
(PID.TID 0000.0001) %MON dynstat_wvel_del2            =   1.3733452540939E-15
(PID.TID 0000.0001) %MON dynstat_theta_max            =   1.8162224281998E+00
(PID.TID 0000.0001) %MON dynstat_theta_min            =   9.9992450472193E-01
(PID.TID 0000.0001) %MON dynstat_theta_mean           =   1.0066874826115E+00
(PID.TID 0000.0001) %MON dynstat_theta_sd             =   5.6428764337147E-02
(PID.TID 0000.0001) %MON dynstat_theta_del2           =   3.7983746580631E-04
(PID.TID 0000.0001) %MON dynstat_salt_max             =   1.8591189122939E+00
(PID.TID 0000.0001) %MON dynstat_salt_min             =   9.9978828943979E-01
(PID.TID 0000.0001) %MON dynstat_salt_mean            =   1.0068661807491E+00
(PID.TID 0000.0001) %MON dynstat_salt_sd              =   5.8933496397462E-02
(PID.TID 0000.0001) %MON dynstat_salt_del2            =   4.1254493143148E-04
(PID.TID 0000.0001) %MON advcfl_uvel_max              =   1.0218201555446E+00
(PID.TID 0000.0001) %MON advcfl_vvel_max              =   1.0218201555446E+00
(PID.TID 0000.0001) %MON advcfl_wvel_max              =   3.4746817944873E-16
(PID.TID 0000.0001) %MON advcfl_W_hf_max              =   0.0000000000000E+00
(PID.TID 0000.0001) %MON ke_max                       =   7.4455150023606E+02
(PID.TID 0000.0001) %MON ke_mean                      =   4.9661803126781E+02
(PID.TID 0000.0001) %MON ke_volint                    =   2.5323489810542E+22
(PID.TID 0000.0001) %MON ke_volmean                   =   4.9663214534537E+02
(PID.TID 0000.0001) // =======================================================
(PID.TID 0000.0001) // End MONITOR dynamic field statistics
(PID.TID 0000.0001) // =======================================================
(PID.TID 0000.0001) // =======================================================
(PID.TID 0000.0001) // Field Current uVel   at iteration        192
(PID.TID 0000.0001) // CMIN =         -2.664075185753955E+01
(PID.TID 0000.0001) // CMAX =          3.858890972916976E+01
(PID.TID 0000.0001) // CINT =          2.415913392100345E+00
(PID.TID 0000.0001) // SYMBOLS (CMIN->CMAX): -abcdefghijklmnopqrstuvwxyz+
(PID.TID 0000.0001) //                  0.0: .
(PID.TID 0000.0001) // RANGE I (Lo:Hi:Step):(   1: 192:   1)
(PID.TID 0000.0001) // RANGE J (Lo:Hi:Step):(  32:   1:  -1)
(PID.TID 0000.0001) // RANGE K (Lo:Hi:Step):(   1:   1:   1)
(PID.TID 0000.0001) // =======================================================
(PID.TID 0000.0001) K =   1
(PID.TID 0000.0001)                I=10      I=20      I=30      I=40      I=50      I=60      I=70      I=80      I=90      I=100     I=110     I=120     I=130     I=140     I=150     I=160     I=170     I=180     I=190
(PID.TID 0000.0001) |--J--|123456789|123456789|123456789|123456789|123456789|123456789|123456789|123456789|123456789|123456789|123456789|123456789|123456789|123456789|123456789|123456789|123456789|123456789|123456789|12
(PID.TID 0000.0001)     32 xwwwwwwwwwwwwwwwwwwwwwwwwwwwwwwwxwwwwwwwwwwwwwwwwwwwwwwwwwwwwwwwea-----------------------------aeijjkkkkkkkkkkkk.kkkkkkkkkkkkllmeijjkkkkkkkkkkkk.kkkkkkkkkkkkllmquvvvvvvvvvvvvvvvvvvvvvvvvvvvvvu
(PID.TID 0000.0001)     31 xxxxwwwwwwwwwwwwwwwwwwwwwwwwwxxxxxxxwwwwwwwwwwwwwwwwwwwwwwwwwxxxecbaaaaaaaaaaaaaaaaaaaaaaaaaaabcegiijjjjkkkkkkkk.kkkkkkkkllllmmoegiijjjjkkkkkkkk.kkkkkkkkllllmmoqstuuuuuuuuuuuuuuuuuuuuuuuuuuuts
(PID.TID 0000.0001)     30 yxxxxxxxxxxxxxxxxxxxxxxxxxxxxxxxyxxxxxxxxxxxxxxxxxxxxxxxxxxxxxxxedcbbbaaaaaaaaaaaaaaaaaaaaabbbcdeghiijjjjjkkkkkk.kkkkkklllllmmnpeghiijjjjjkkkkkk.kkkkkklllllmmnpqrstttuuuuuuuuuuuuuuuuuuuuutttsr
(PID.TID 0000.0001)     29 yyyyxxxxxxxxxxxxxxxxxxxxxxxxxyyyyyyyxxxxxxxxxxxxxxxxxxxxxxxxxyyyeddccbbbbbbbbbbbbbbbbbbbbbbbccddefghiijjjjjkkkkk.kkkkklllllmmnopefghiijjjjjkkkkk.kkkkklllllmmnopqrssstttttttttttttttttttttttsssr
(PID.TID 0000.0001)     28 yyyyyyyyyyyxxxxxxxxxxxyyyyyyyyyyyyyyyyyyyyyxxxxxxxxxxxyyyyyyyyyyfeddccccccbbbbbbbbbbbbbccccccddeffghiiijjjjjkkkk.kkkklllllmmnnopffghiiijjjjjkkkk.kkkklllllmmnnoppqrrssssstttttttttttttttsssssrrq
(PID.TID 0000.0001)     27 yyyyyyyyyyyyyyyyyyyyyyyyyyyyyyyyyyyyyyyyyyyyyyyyyyyyyyyyyyyyyyyyfeeddddcccccccccccccccccccddddeefgghhiijjjjjkkkk.kkkklllllmmnnoofgghhiijjjjjkkkk.kkkklllllmmnnoopqqrrrsssssssssssssssssssssrrrqq
(PID.TID 0000.0001)     26 zzzzyyyyyyyyyyyyyyyyyyyyyyyyyzzzzzzzyyyyyyyyyyyyyyyyyyyyyyyyyzzzffeeedddddddddddddddddddddddeeeffgghhiijjjjjkkkk.kkklllllmmmnnoofgghhiijjjjjkkkk.kkklllllmmmnnooppqqqrrrrrrrrrrrrrrrrrrrrrrrqqqp
(PID.TID 0000.0001)     25 zzzzzzzzzzzzzzzzzzzzzzzzzzzzzzzzzzzzzzzzzzzzzzzzzzzzzzzzzzzzzzzzgfffeeeeeeeedddddddddeeeeeeeefffgghhiiijjjjjkkkk.kkklllllmmmnnnogghhiiijjjjjkkkk.kkklllllmmmnnnoopppqqqqqqrrrrrrrrrrrrrqqqqqqppp
(PID.TID 0000.0001)     24 zzzzzzzzzzzzzzzzzzzzzzzzzzzzzzzzzzzzzzzzzzzzzzzzzzzzzzzzzzzzzzzzgggfffffeeeeeeeeeeeeeeeeefffffggghhhiiijjjjjkkkk.kkkllllllmmmnnnghhhiiijjjjjkkkk.kkkllllllmmmnnnoopppppqqqqqqqqqqqqqqqqqqqpppppo
(PID.TID 0000.0001)     23 zzzzzzzzzzzzzzzzzzzzzzzzzzzzzzzzzzzzzzzzzzzzzzzzzzzzzzzzzzzzzzzzhggggfffffffffffffffffffffffgggghhhiiiijjjjjkkkk.kkkklllllmmmmnnhhhiiiijjjjjkkkk.kkkklllllmmmmnnnoooopppppppppppppppppppppppoooo
(PID.TID 0000.0001)     22 zzzzzzzzzzzzzzzzzzzzzzzzzzzzzzzzzzzzzzzzzzzzzzzzzzzzzzzzzzzzzzzzhhhhggggggggggggggggggggggggghhhhhiiiijjjjjjkkkk.kkkkllllllmmmmnhhiiiijjjjjjkkkk.kkkkllllllmmmmnnnnooooooooooooooooooooooooooonn
(PID.TID 0000.0001)     21 ++++++++++++++++++++++++++++++++++++++++++++++++++++++++++++++++ihhhhhhhhhhggggggggggghhhhhhhhhhiiiiijjjjjjkkkkk.kkkkkllllllmmmmiiiiijjjjjjkkkkk.kkkkkllllllmmmmmnnnnnnnnnooooooooooooonnnnnnnnn
(PID.TID 0000.0001)     20 ++++++++++++++++++++++++++++++++++++++++++++++++++++++++++++++++iiiiiihhhhhhhhhhhhhhhhhhhhhiiiiiiiijjjjjjjkkkkkk.kkkkkklllllllmmiiijjjjjjjkkkkkk.kkkkkklllllllmmmmmmmmnnnnnnnnnnnnnnnnnnnnnmmmmm
(PID.TID 0000.0001)     19 ++++++++++++++++++++++++++++++++++++++++++++++++++++++++++++++++jjiiiiiiiiiiiiiiiiiiiiiiiiiiiiijjjjjjjjjkkkkkkkk.kkkkkkklllllllljjjjjjjjkkkkkkkk.kkkkkkkllllllllllmmmmmmmmmmmmmmmmmmmmmmmmmmmmml
(PID.TID 0000.0001)     18 ++++++++++++++++++++++++++++++++++++++++++++++++++++++++++++++++jjjjjjjjjjjjjjjjjjjjjjjjjjjjjjjjjjjjjkkkkkkkkkkk.kkkkkkkkkkklllljjjjjkkkkkkkkkkk.kkkkkkkkkkkllllllllllllllllllllllllllllllllllll
(PID.TID 0000.0001)     17 ++++++++++++++++++++++++++++++++++++++++++++++++++++++++++++++++kkkkkkkkkkkkkkkkkkkkkkkkkkkkkkkkkkkkkkkkkkkkkkkk.kkkkkkkkkkkkkkkkkkkkkkkkkkkkkkk.kkkkkkkkkkkkkkkkkkkkkkkkkkkkkkkkkkkkkkkkkkkkkkk
(PID.TID 0000.0001)     16 ++++++++++++++++++++++++++++++++++++++++++++++++++++++++++++++++kkkkkkkkkkkkkkkkkkkkkkkkkkkkkkkkkkkkkkkkkkkkkkkk.kkkkkkkkkkkkkkkkkkkkkkkkkkkkkkk.kkkkkkkkkkkkkkkkkkkkkkkkkkkkkkkkkkkkkkkkkkkkkkk
(PID.TID 0000.0001)     15 ++++++++++++++++++++++++++++++++++++++++++++++++++++++++++++++++lllllllllllllllllllllllllllllllllllllkkkkkkkkkkk.kkkkkkkkkkkjjjjlllllkkkkkkkkkkk.kkkkkkkkkkkjjjjjjjjjjjjjjjjjjjjjjjjjjjjjjjjjjjj
(PID.TID 0000.0001)     14 ++++++++++++++++++++++++++++++++++++++++++++++++++++++++++++++++llmmmmmmmmmmmmmmmmmmmmmmmmmmmmmllllllllllkkkkkkk.kkkkkkkkjjjjjjjlllllllllkkkkkkk.kkkkkkkkjjjjjjjjjiiiiiiiiiiiiiiiiiiiiiiiiiiiiij
(PID.TID 0000.0001)     13 ++++++++++++++++++++++++++++++++++++++++++++++++++++++++++++++++mmmmmmnnnnnnnnnnnnnnnnnnnnnmmmmmmmmlllllllkkkkkk.kkkkkkjjjjjjjiimmmlllllllkkkkkk.kkkkkkjjjjjjjiiiiiiiihhhhhhhhhhhhhhhhhhhhhiiiii
(PID.TID 0000.0001)     12 ++++++++++++++++++++++++++++++++++++++++++++++++++++++++++++++++mnnnnnnnnnooooooooooooonnnnnnnnnmmmmmllllllkkkkk.kkkkkjjjjjjiiiimmmmmllllllkkkkk.kkkkkjjjjjjiiiiihhhhhhhhhhggggggggggghhhhhhhhhh
(PID.TID 0000.0001)     11 zzzzzzzzzzzzzzzzzzzzzzzzzzzzzzzzzzzzzzzzzzzzzzzzzzzzzzzzzzzzzzzznnnooooooooooooooooooooooooooonnnnmmmmllllllkkkk.kkkkjjjjjjiiiihnnmmmmllllllkkkk.kkkkjjjjjjiiiihhhhhggggggggggggggggggggggggghhh
(PID.TID 0000.0001)     10 zzzzzzzzzzzzzzzzzzzzzzzzzzzzzzzzzzzzzzzzzzzzzzzzzzzzzzzzzzzzzzzznoooopppppppppppppppppppppppoooonnnmmmmlllllkkkk.kkkkjjjjjiiiihhnnnmmmmlllllkkkk.kkkkjjjjjiiiihhhggggfffffffffffffffffffffffgggg
(PID.TID 0000.0001)      9 zzzzzzzzzzzzzzzzzzzzzzzzzzzzzzzzzzzzzzzzzzzzzzzzzzzzzzzzzzzzzzzzoopppppqqqqqqqqqqqqqqqqqqqpppppoonnnmmmllllllkkk.kkkkjjjjjiiihhhonnnmmmllllllkkk.kkkkjjjjjiiihhhgggfffffeeeeeeeeeeeeeeeeefffffgg
(PID.TID 0000.0001)      8 zzzzzzzzzzzzzzzzzzzzzzzzzzzzzzzzzzzzzzzzzzzzzzzzzzzzzzzzzzzzzzzzopppqqqqqqrrrrrrrrrrrrrqqqqqqpppoonnnmmmlllllkkk.kkkkjjjjjiiihhgoonnnmmmlllllkkk.kkkkjjjjjiiihhggfffeeeeeeeedddddddddeeeeeeeefff
(PID.TID 0000.0001)      7 zzzzyyyyyyyyyyyyyyyyyyyyyyyyyzzzzzzzyyyyyyyyyyyyyyyyyyyyyyyyyzzzppqqqrrrrrrrrrrrrrrrrrrrrrrrqqqppoonnmmmlllllkkk.kkkkjjjjjiihhggpoonnmmmlllllkkk.kkkkjjjjjiihhggffeeedddddddddddddddddddddddeeef
(PID.TID 0000.0001)      6 yyyyyyyyyyyyyyyyyyyyyyyyyyyyyyyyyyyyyyyyyyyyyyyyyyyyyyyyyyyyyyyypqqrrrsssssssssssssssssssssrrrqqpoonnmmlllllkkkk.kkkkjjjjjiihhggpoonnmmlllllkkkk.kkkkjjjjjiihhggfeeddddcccccccccccccccccccddddee
(PID.TID 0000.0001)      5 yyyyyyyyyyyxxxxxxxxxxxyyyyyyyyyyyyyyyyyyyyyxxxxxxxxxxxyyyyyyyyyypqrrssssstttttttttttttttsssssrrqpponnmmlllllkkkk.kkkkjjjjjiiihgfpponnmmlllllkkkk.kkkkjjjjjiiihgffeddccccccbbbbbbbbbbbbbccccccdde
(PID.TID 0000.0001)      4 yyyyxxxxxxxxxxxxxxxxxxxxxxxxxyyyyyyyxxxxxxxxxxxxxxxxxxxxxxxxxyyyqrssstttttttttttttttttttttttsssrqponmmlllllkkkkk.kkkkkjjjjjiihgfqponmmlllllkkkkk.kkkkkjjjjjiihgfeddccbbbbbbbbbbbbbbbbbbbbbbbccdd
(PID.TID 0000.0001)      3 yxxxxxxxxxxxxxxxxxxxxxxxxxxxxxxxyxxxxxxxxxxxxxxxxxxxxxxxxxxxxxxxqrstttuuuuuuuuuuuuuuuuuuuuutttsrqpnmmlllllkkkkkk.kkkkkkjjjjjiihgqpnmmlllllkkkkkk.kkkkkkjjjjjiihgedcbbbaaaaaaaaaaaaaaaaaaaaabbbcd
(PID.TID 0000.0001)      2 xxxxwwwwwwwwwwwwwwwwwwwwwwwwwxxxxxxxwwwwwwwwwwwwwwwwwwwwwwwwwxxxqstuuuuuuuuuuuuuuuuuuuuuuuuuuutsqommllllkkkkkkkk.kkkkkkkkjjjjiigqommllllkkkkkkkk.kkkkkkkkjjjjiigecbaaaaaaaaaaaaaaaaaaaaaaaaaaabc
(PID.TID 0000.0001)      1 xwwwwwwwwwwwwwwwwwwwwwwwwwwwwwwwxwwwwwwwwwwwwwwwwwwwwwwwwwwwwwwwquvvvvvvvvvvvvvvvvvvvvvvvvvvvvvuqmllkkkkkkkkkkkk.kkkkkkkkkkkkjjiqmllkkkkkkkkkkkk.kkkkkkkkkkkkjjiea-----------------------------a
(PID.TID 0000.0001) // =======================================================
(PID.TID 0000.0001) // END OF FIELD                                          =
(PID.TID 0000.0001) // =======================================================
(PID.TID 0000.0001) 
(PID.TID 0000.0001) // =======================================================
(PID.TID 0000.0001) // Field Current vVel   at iteration        192
(PID.TID 0000.0001) // CMIN =         -2.664075185753955E+01
(PID.TID 0000.0001) // CMAX =          3.858890972916976E+01
(PID.TID 0000.0001) // CINT =          2.415913392100345E+00
(PID.TID 0000.0001) // SYMBOLS (CMIN->CMAX): -abcdefghijklmnopqrstuvwxyz+
(PID.TID 0000.0001) //                  0.0: .
(PID.TID 0000.0001) // RANGE I (Lo:Hi:Step):(   1: 192:   1)
(PID.TID 0000.0001) // RANGE J (Lo:Hi:Step):(  32:   1:  -1)
(PID.TID 0000.0001) // RANGE K (Lo:Hi:Step):(   1:   1:   1)
(PID.TID 0000.0001) // =======================================================
(PID.TID 0000.0001) K =   1
(PID.TID 0000.0001)                I=10      I=20      I=30      I=40      I=50      I=60      I=70      I=80      I=90      I=100     I=110     I=120     I=130     I=140     I=150     I=160     I=170     I=180     I=190
(PID.TID 0000.0001) |--J--|123456789|123456789|123456789|123456789|123456789|123456789|123456789|123456789|123456789|123456789|123456789|123456789|123456789|123456789|123456789|123456789|123456789|123456789|123456789|12
(PID.TID 0000.0001)     32 iggffggghhhiijjkkllmmnnnooopppomiggffggghhhiijjkkllmmnnnooopppomacddeeffgghhijjkkllmnnooppqqrrsuwxxyyyzzzzz++++++++++zzzzzyyyxxwwxxyyyzzzzz++++++++++zzzzzyyyxxwusrrqqppoonnmllkkjjihhggffeeddca
(PID.TID 0000.0001)     31 jihgggghhhiiijjkkllmmmnnnoooonmljihgggghhhiiijjkkllmmmnnnoooonml-bcddeefgghhiijkklmmnnoppqqrsstvwxxyyyzzzzz++++++++++zzzzzyyyxxwwxxyyyzzzzz++++++++++zzzzzyyyxxwvtssrqqpponnmmlkkjiihhggfeeddcb-
(PID.TID 0000.0001)     30 jiihhhhhhiiijjjkklllmmmnnnnnnmmljiihhhhhhiiijjjkklllmmmnnnnnnmml-abcddeffghhiijkklmmnooppqrrstuvwxxyyyzzzzz++++++++++zzzzzyyyxxwwxxyyyzzzzz++++++++++zzzzzyyyxxwvutsrrqppoonmmlkkjiihhgffeddcba-
(PID.TID 0000.0001)     29 kjiiihhiiiiijjjkklllmmmmnnnnmmlkkjiiihhiiiiijjjkklllmmmmnnnnmmlk-abccdeefgghiijkklmmnoopqqrsstuvwwxxyyyzzzz++++++++++zzzzyyyxxwwwwxxyyyzzzz++++++++++zzzzyyyxxwwvutssrqqpoonmmlkkjiihggfeedccba-
(PID.TID 0000.0001)     28 kjjiiiiiiiijjjkkkklllmmmmmmmmllkkjjiiiiiiiijjjkkkklllmmmmmmmmllk-abbcddeffghiijkklmmnoppqrrsttuvwwxxyyyzzzz++++++++++zzzzyyyxxwwwwxxyyyzzzz++++++++++zzzzyyyxxwwvuttsrrqpponmmlkkjiihgffeddcbba-
(PID.TID 0000.0001)     27 kjjjiiiiiijjjjkkkkllllmmmmmmlllkkjjjiiiiiijjjjkkkkllllmmmmmmlllk-aabcddeffghhijkklmnnoppqrsstuuvwwxxyyyzzzz++++++++++zzzzyyyxxwwwwxxyyyzzzz++++++++++zzzzyyyxxwwvuutssrqpponnmlkkjihhgffeddcbaa-
(PID.TID 0000.0001)     26 kjjjjjjjjjjjjjkkkkllllllmmlllllkkjjjjjjjjjjjjjkkkkllllllmmlllllk-aabccdeffghhijkklmnnopqqrsstuuvwwxxyyyzzzz++++++++++zzzzyyyxxwwwwxxyyyzzzz++++++++++zzzzyyyxxwwvuutssrqqponnmlkkjihhgffedccbaa-
(PID.TID 0000.0001)     25 kkjjjjjjjjjjjkkkkkllllllllllllkkkkjjjjjjjjjjjkkkkkllllllllllllkk-aabccdeefghhijkklmnnopqqrsstuuvwwxxyyyzzzz++++++++++zzzzyyyxxwwwwxxyyyzzzz++++++++++zzzzyyyxxwwvuutssrqqponnmlkkjihhgfeedccbaa-
(PID.TID 0000.0001)     24 kkjjjjjjjjjjjkkkkkklllllllllllkkkkjjjjjjjjjjjkkkkkklllllllllllkk-aabccdeefghhijkklmnnopqqrsttuuvwwxxyyyzzzz++++++++++zzzzyyyxxwwwwxxyyyzzzz++++++++++zzzzyyyxxwwvuuttsrqqponnmlkkjihhgfeedccbaa-
(PID.TID 0000.0001)     23 kkkjjjjjjjjjkkkkkkkklllllllllkkkkkkjjjjjjjjjkkkkkkkklllllllllkkk-aabbcdeefghhijkklmnoopqrrsttuuvwwxxyyyzzzz++++++++++zzzzyyyxxwwwwxxyyyzzzz++++++++++zzzzyyyxxwwvuuttsrrqpoonmlkkjihhgfeedcbbaa-
(PID.TID 0000.0001)     22 kkkkjjjjjjjkkkkkkkkkklllllllkkkkkkkkjjjjjjjkkkkkkkkkklllllllkkkk-aabbcdeefgghijkklmnoopqrrsttuuvwwxxxyyzzzz++++++++++zzzzyyxxxwwwwxxxyyzzzz++++++++++zzzzyyxxxwwvuuttsrrqpoonmlkkjihggfeedcbbaa-
(PID.TID 0000.0001)     21 kkkkkkkkkkkkkkkkkkkkkkklllkkkkkkkkkkkkkkkkkkkkkkkkkkkkklllkkkkkk-aabbcddefgghijkklmnoopqrrsttuuvwwxxxyyzzzz++++++++++zzzzyyxxxwwwwxxxyyzzzz++++++++++zzzzyyxxxwwvuuttsrrqpoonmlkkjihggfeddcbbaa-
(PID.TID 0000.0001)     20 kkkkkkkkkkkkkkkkkkkkkkkkkkkkkkkkkkkkkkkkkkkkkkkkkkkkkkkkkkkkkkkk-aabbcddefgghijkklmnoopqrrsttuuvwwxxxyyzzzz++++++++++zzzzyyxxxwwwwxxxyyzzzz++++++++++zzzzyyxxxwwvuuttsrrqpoonmlkkjihggfeddcbbaa-
(PID.TID 0000.0001)     19 kkkkkkkkkkkkkkkkkkkkkkkkkkkkkkkkkkkkkkkkkkkkkkkkkkkkkkkkkkkkkkkk-aabbcddefgghijkklmnoopqrrsttuuvwwxxxyyzzzz++++++++++zzzzyyxxxwwwwxxxyyzzzz++++++++++zzzzyyxxxwwvuuttsrrqpoonmlkkjihggfeddcbbaa-
(PID.TID 0000.0001)     18 kkkkkkkkkkkkkkkkkkkkkkkkkkkkkkkkkkkkkkkkkkkkkkkkkkkkkkkkkkkkkkkk-aabbcddefgghijkklmnoopqrrsttuuvwwxxxyyzzzz++++++++++zzzzyyxxxwwwwxxxyyzzzz++++++++++zzzzyyxxxwwvuuttsrrqpoonmlkkjihggfeddcbbaa-
(PID.TID 0000.0001)     17 ................................................................-aabbcddefgghijkklmnoopqrrsttuuvwwxxxyyzzzz++++++++++zzzzyyxxxwwwwxxxyyzzzz++++++++++zzzzyyxxxwwvuuttsrrqpoonmlkkjihggfeddcbbaa-
(PID.TID 0000.0001)     16 kkkkkkkkkkkkkkkkkkkkkkkkkkkkkkkkkkkkkkkkkkkkkkkkkkkkkkkkkkkkkkkk-aabbcddefgghijkklmnoopqrrsttuuvwwxxxyyzzzz++++++++++zzzzyyxxxwwwwxxxyyzzzz++++++++++zzzzyyxxxwwvuuttsrrqpoonmlkkjihggfeddcbbaa-
(PID.TID 0000.0001)     15 kkkkkkkkkkkkkkkkkkkkkkkkkkkkkkkkkkkkkkkkkkkkkkkkkkkkkkkkkkkkkkkk-aabbcddefgghijkklmnoopqrrsttuuvwwxxxyyzzzz++++++++++zzzzyyxxxwwwwxxxyyzzzz++++++++++zzzzyyxxxwwvuuttsrrqpoonmlkkjihggfeddcbbaa-
(PID.TID 0000.0001)     14 kkkkkkkkkkkkkkkkkkkkkkkkkkkkkkkkkkkkkkkkkkkkkkkkkkkkkkkkkkkkkkkk-aabbcddefgghijkklmnoopqrrsttuuvwwxxxyyzzzz++++++++++zzzzyyxxxwwwwxxxyyzzzz++++++++++zzzzyyxxxwwvuuttsrrqpoonmlkkjihggfeddcbbaa-
(PID.TID 0000.0001)     13 kkkkkklllkkkkkkkkkkkkkkkkkkkkkkkkkkkkklllkkkkkkkkkkkkkkkkkkkkkkk-aabbcddefgghijkklmnoopqrrsttuuvwwxxxyyzzzz++++++++++zzzzyyxxxwwwwxxxyyzzzz++++++++++zzzzyyxxxwwvuuttsrrqpoonmlkkjihggfeddcbbaa-
(PID.TID 0000.0001)     12 kkkklllllllkkkkkkkkkkjjjjjjjkkkkkkkklllllllkkkkkkkkkkjjjjjjjkkkk-aabbcdeefgghijkklmnoopqrrsttuuvwwxxxyyzzzz++++++++++zzzzyyxxxwwwwxxxyyzzzz++++++++++zzzzyyxxxwwvuuttsrrqpoonmlkkjihggfeedcbbaa-
(PID.TID 0000.0001)     11 kkklllllllllkkkkkkkkjjjjjjjjjkkkkkklllllllllkkkkkkkkjjjjjjjjjkkk-aabbcdeefghhijkklmnoopqrrsttuuvwwxxyyyzzzz++++++++++zzzzyyyxxwwwwxxyyyzzzz++++++++++zzzzyyyxxwwvuuttsrrqpoonmlkkjihhgfeedcbbaa-
(PID.TID 0000.0001)     10 kklllllllllllkkkkkkjjjjjjjjjjjkkkklllllllllllkkkkkkjjjjjjjjjjjkk-aabccdeefghhijkklmnnopqqrsttuuvwwxxyyyzzzz++++++++++zzzzyyyxxwwwwxxyyyzzzz++++++++++zzzzyyyxxwwvuuttsrqqponnmlkkjihhgfeedccbaa-
(PID.TID 0000.0001)      9 kkllllllllllllkkkkkjjjjjjjjjjjkkkkllllllllllllkkkkkjjjjjjjjjjjkk-aabccdeefghhijkklmnnopqqrsstuuvwwxxyyyzzzz++++++++++zzzzyyyxxwwwwxxyyyzzzz++++++++++zzzzyyyxxwwvuutssrqqponnmlkkjihhgfeedccbaa-
(PID.TID 0000.0001)      8 klllllmmllllllkkkkjjjjjjjjjjjjjkklllllmmllllllkkkkjjjjjjjjjjjjjk-aabccdeffghhijkklmnnopqqrsstuuvwwxxyyyzzzz++++++++++zzzzyyyxxwwwwxxyyyzzzz++++++++++zzzzyyyxxwwvuutssrqqponnmlkkjihhgffedccbaa-
(PID.TID 0000.0001)      7 klllmmmmmmllllkkkkjjjjiiiiiijjjkklllmmmmmmllllkkkkjjjjiiiiiijjjk-aabcddeffghhijkklmnnoppqrsstuuvwwxxyyyzzzz++++++++++zzzzyyyxxwwwwxxyyyzzzz++++++++++zzzzyyyxxwwvuutssrqpponnmlkkjihhgffeddcbaa-
(PID.TID 0000.0001)      6 kllmmmmmmmmlllkkkkjjjiiiiiiiijjkkllmmmmmmmmlllkkkkjjjiiiiiiiijjk-abbcddeffghiijkklmmnoppqrrsttuvwwxxyyyzzzz++++++++++zzzzyyyxxwwwwxxyyyzzzz++++++++++zzzzyyyxxwwvuttsrrqpponmmlkkjiihgffeddcbba-
(PID.TID 0000.0001)      5 klmmnnnnmmmmlllkkjjjiiiiihhiiijkklmmnnnnmmmmlllkkjjjiiiiihhiiijk-abccdeefgghiijkklmmnoopqqrsstuvwwxxyyyzzzz++++++++++zzzzyyyxxwwwwxxyyyzzzz++++++++++zzzzyyyxxwwvutssrqqpoonmmlkkjiihggfeedccba-
(PID.TID 0000.0001)      4 lmmnnnnnnmmmlllkkjjjiiihhhhhhiijlmmnnnnnnmmmlllkkjjjiiihhhhhhiij-abcddeffghhiijkklmmnooppqrrstuvwxxyyyzzzzz++++++++++zzzzzyyyxxwwxxyyyzzzzz++++++++++zzzzzyyyxxwvutsrrqppoonmmlkkjiihhgffeddcba-
(PID.TID 0000.0001)      3 lmnoooonnnmmmllkkjjiiihhhgggghijlmnoooonnnmmmllkkjjiiihhhgggghij-bcddeefgghhiijkklmmnnoppqqrsstvwxxyyyzzzzz++++++++++zzzzzyyyxxwwxxyyyzzzzz++++++++++zzzzzyyyxxwvtssrqqpponnmmlkkjiihhggfeeddcb-
(PID.TID 0000.0001)      2 mopppooonnnmmllkkjjiihhhgggffggimopppooonnnmmllkkjjiihhhgggffggiacddeeffgghhijjkkllmnnooppqqrrsuwxxyyyzzzzz++++++++++zzzzzyyyxxwwxxyyyzzzzz++++++++++zzzzzyyyxxwusrrqqppoonnmllkkjjihhggffeeddca
(PID.TID 0000.0001)      1 qqqqpppoonnmmllkkjjiihhggfffeeeeqqqqpppoonnmmllkkjjiihhggfffeeeeeeeefffgghhiijjkkllmmnnoopppqqqqxxyyyyzzzzz++++++++++zzzzzyyyyxxxxyyyyzzzzz++++++++++zzzzzyyyyxxqqqqpppoonnmmllkkjjiihhggfffeeee
(PID.TID 0000.0001) // =======================================================
(PID.TID 0000.0001) // END OF FIELD                                          =
(PID.TID 0000.0001) // =======================================================
(PID.TID 0000.0001) 
(PID.TID 0000.0001) // =======================================================
(PID.TID 0000.0001) // Field Current theta  at iteration        192
(PID.TID 0000.0001) // CMIN =          9.999245047219287E-01
(PID.TID 0000.0001) // CMAX =          1.816222428199790E+00
(PID.TID 0000.0001) // CINT =          3.023325642510597E-02
(PID.TID 0000.0001) // SYMBOLS (CMIN->CMAX): -abcdefghijklmnopqrstuvwxyz+
(PID.TID 0000.0001) //                  0.0: .
(PID.TID 0000.0001) // RANGE I (Lo:Hi:Step):(   1: 192:   1)
(PID.TID 0000.0001) // RANGE J (Lo:Hi:Step):(  32:   1:  -1)
(PID.TID 0000.0001) // RANGE K (Lo:Hi:Step):(   1:   1:   1)
(PID.TID 0000.0001) // =======================================================
(PID.TID 0000.0001) K =   1
(PID.TID 0000.0001)                I=10      I=20      I=30      I=40      I=50      I=60      I=70      I=80      I=90      I=100     I=110     I=120     I=130     I=140     I=150     I=160     I=170     I=180     I=190
(PID.TID 0000.0001) |--J--|123456789|123456789|123456789|123456789|123456789|123456789|123456789|123456789|123456789|123456789|123456789|123456789|123456789|123456789|123456789|123456789|123456789|123456789|123456789|12
(PID.TID 0000.0001)     32 --------------------------------------------------------------------------------------------------------------------------------------------aabbbbaa--------------------------------------------
(PID.TID 0000.0001)     31 ------------------------------------------------------------------------------------------------------------------------------------------------------------------------------------------------
(PID.TID 0000.0001)     30 ------------------------------------------------------------------------------------------------------------------------------------------------------------------------------------------------
(PID.TID 0000.0001)     29 ------------------------------------------------------------------------------------------------------------------------------------------------------------------------------------------------
(PID.TID 0000.0001)     28 ------------------------------------------------------------------------------------------------------------------------------------------------------------------------------------------------
(PID.TID 0000.0001)     27 ------------------------------------------------------------------------------------------------------------------------------------------------------------------------------------------------
(PID.TID 0000.0001)     26 ------------------------------------------------------------------------------------------------------------------------------------------------------------------------------------------------
(PID.TID 0000.0001)     25 ------------------------------------------------------------------------------------------------------------------------------------------------------------------------------------------------
(PID.TID 0000.0001)     24 ------------------------------------------------------------------------------------------------------------------------------------------------------------------------------------------------
(PID.TID 0000.0001)     23 ------------------------------------------------------------------------------------------------------------------------------------------------------------------------------------------------
(PID.TID 0000.0001)     22 --aaaaa-----------------------------------------------------------------------------------------------------------------------------------------------------------------------------------------
(PID.TID 0000.0001)     21 abcddddcba--------------------------------------------------------------------------------------------------------------------------------------------------------------------------------------
(PID.TID 0000.0001)     20 bdgijjjhfca-------------------------------------------------------------------------------------------------------------------------------------------------------------------------------------
(PID.TID 0000.0001)     19 dgkoqqqnkfca------------------------------------------------------------------------------------------------------------------------------------------------------------------------------------
(PID.TID 0000.0001)     18 ejptwxwtoiea------------------------------------------------------------------------------------------------------------------------------------------------------------------------------------
(PID.TID 0000.0001)     17 flrwz+zwqkfb------------------------------------------------------------------------------------------------------------------------------------------------------------------------------------
(PID.TID 0000.0001)     16 flrwz+zwqkfb------------------------------------------------------------------------------------------------------------------------------------------------------------------------------------
(PID.TID 0000.0001)     15 ejptwxwtoiea------------------------------------------------------------------------------------------------------------------------------------------------------------------------------------
(PID.TID 0000.0001)     14 dgkoqqqnkfca------------------------------------------------------------------------------------------------------------------------------------------------------------------------------------
(PID.TID 0000.0001)     13 bdgijjjhfca-------------------------------------------------------------------------------------------------------------------------------------------------------------------------------------
(PID.TID 0000.0001)     12 abcddddcba--------------------------------------------------------------------------------------------------------------------------------------------------------------------------------------
(PID.TID 0000.0001)     11 --aaaaa-----------------------------------------------------------------------------------------------------------------------------------------------------------------------------------------
(PID.TID 0000.0001)     10 ------------------------------------------------------------------------------------------------------------------------------------------------------------------------------------------------
(PID.TID 0000.0001)      9 ------------------------------------------------------------------------------------------------------------------------------------------------------------------------------------------------
(PID.TID 0000.0001)      8 ------------------------------------------------------------------------------------------------------------------------------------------------------------------------------------------------
(PID.TID 0000.0001)      7 ------------------------------------------------------------------------------------------------------------------------------------------------------------------------------------------------
(PID.TID 0000.0001)      6 ------------------------------------------------------------------------------------------------------------------------------------------------------------------------------------------------
(PID.TID 0000.0001)      5 ------------------------------------------------------------------------------------------------------------------------------------------------------------------------------------------------
(PID.TID 0000.0001)      4 ------------------------------------------------------------------------------------------------------------------------------------------------------------------------------------------------
(PID.TID 0000.0001)      3 ------------------------------------------------------------------------------------------------------------------------------------------------------------------------------------------------
(PID.TID 0000.0001)      2 ------------------------------------------------------------------------------------------------------------------------------------------------------------------------------------------------
(PID.TID 0000.0001)      1 ------------------------------------------------------------------------------------------------------------------------------------------------------------------------------------------------
(PID.TID 0000.0001) // =======================================================
(PID.TID 0000.0001) // END OF FIELD                                          =
(PID.TID 0000.0001) // =======================================================
(PID.TID 0000.0001) 
(PID.TID 0000.0001) // =======================================================
(PID.TID 0000.0001) // Field Current etaN   at iteration        192
(PID.TID 0000.0001) // CMIN =          1.000000000000000E+32
(PID.TID 0000.0001) // CMAX =         -1.000000000000000E+32
(PID.TID 0000.0001) // CINT =          0.000000000000000E+00
(PID.TID 0000.0001) // SYMBOLS (CMIN->CMAX): -abcdefghijklmnopqrstuvwxyz+
(PID.TID 0000.0001) //                  0.0: .
(PID.TID 0000.0001) // RANGE I (Lo:Hi:Step):(  -2: 195:   1)
(PID.TID 0000.0001) // RANGE J (Lo:Hi:Step):(  35:  -2:  -1)
(PID.TID 0000.0001) // RANGE K (Lo:Hi:Step):(   1:   1:   1)
(PID.TID 0000.0001) // =======================================================
(PID.TID 0000.0001) K =   1
(PID.TID 0000.0001)                I=7       I=17      I=27      I=31      I=41      I=51      I=61      I=65      I=75      I=85      I=95      I=99      I=109     I=119     I=129     I=133     I=143     I=153     I=163     I=167     I=177     I=187
(PID.TID 0000.0001) |--J--|**0123456|890123456|890123456|890123450|234567890|234567890|234567890|234567234|678901234|678901234|678901234|678945678|012345678|012345678|012345678|016789012|456789012|456789012|456789012|890123456|890123456|890123456|89012345
(PID.TID 0000.0001)     35 ....................................................................................................................................................................................................................................
(PID.TID 0000.0001)     34 ....................................................................................................................................................................................................................................
(PID.TID 0000.0001)     33 ....................................................................................................................................................................................................................................
(PID.TID 0000.0001)     32 ....................................................................................................................................................................................................................................
(PID.TID 0000.0001)     31 ....................................................................................................................................................................................................................................
(PID.TID 0000.0001)     30 ....................................................................................................................................................................................................................................
(PID.TID 0000.0001)     29 ....................................................................................................................................................................................................................................
(PID.TID 0000.0001)     28 ....................................................................................................................................................................................................................................
(PID.TID 0000.0001)     27 ....................................................................................................................................................................................................................................
(PID.TID 0000.0001)     26 ....................................................................................................................................................................................................................................
(PID.TID 0000.0001)     25 ....................................................................................................................................................................................................................................
(PID.TID 0000.0001)     24 ....................................................................................................................................................................................................................................
(PID.TID 0000.0001)     23 ....................................................................................................................................................................................................................................
(PID.TID 0000.0001)     22 ....................................................................................................................................................................................................................................
(PID.TID 0000.0001)     21 ....................................................................................................................................................................................................................................
(PID.TID 0000.0001)     20 ....................................................................................................................................................................................................................................
(PID.TID 0000.0001)     19 ....................................................................................................................................................................................................................................
(PID.TID 0000.0001)     18 ....................................................................................................................................................................................................................................
(PID.TID 0000.0001)     17 ....................................................................................................................................................................................................................................
(PID.TID 0000.0001)     16 ....................................................................................................................................................................................................................................
(PID.TID 0000.0001)     15 ....................................................................................................................................................................................................................................
(PID.TID 0000.0001)     14 ....................................................................................................................................................................................................................................
(PID.TID 0000.0001)     13 ....................................................................................................................................................................................................................................
(PID.TID 0000.0001)     12 ....................................................................................................................................................................................................................................
(PID.TID 0000.0001)     11 ....................................................................................................................................................................................................................................
(PID.TID 0000.0001)     10 ....................................................................................................................................................................................................................................
(PID.TID 0000.0001)      9 ....................................................................................................................................................................................................................................
(PID.TID 0000.0001)      8 ....................................................................................................................................................................................................................................
(PID.TID 0000.0001)      7 ....................................................................................................................................................................................................................................
(PID.TID 0000.0001)      6 ....................................................................................................................................................................................................................................
(PID.TID 0000.0001)      5 ....................................................................................................................................................................................................................................
(PID.TID 0000.0001)      4 ....................................................................................................................................................................................................................................
(PID.TID 0000.0001)      3 ....................................................................................................................................................................................................................................
(PID.TID 0000.0001)      2 ....................................................................................................................................................................................................................................
(PID.TID 0000.0001)      1 ....................................................................................................................................................................................................................................
(PID.TID 0000.0001)      0 ....................................................................................................................................................................................................................................
(PID.TID 0000.0001)     -1 ....................................................................................................................................................................................................................................
(PID.TID 0000.0001)     -2 ....................................................................................................................................................................................................................................
(PID.TID 0000.0001) // =======================================================
(PID.TID 0000.0001) // END OF FIELD                                          =
(PID.TID 0000.0001) // =======================================================
(PID.TID 0000.0001) 
(PID.TID 0000.0001) // =======================================================
(PID.TID 0000.0001) // Begin MONITOR dynamic field statistics
(PID.TID 0000.0001) // =======================================================
(PID.TID 0000.0001) %MON time_tsnumber                =                   198
(PID.TID 0000.0001) %MON time_secondsf                =   7.1280000000000E+05
(PID.TID 0000.0001) %MON time_secondsi                =                712800
(PID.TID 0000.0001) %MON dynstat_eta_max              =   0.0000000000000E+00
(PID.TID 0000.0001) %MON dynstat_eta_min              =   0.0000000000000E+00
(PID.TID 0000.0001) %MON dynstat_eta_mean             =   0.0000000000000E+00
(PID.TID 0000.0001) %MON dynstat_eta_sd               =   0.0000000000000E+00
(PID.TID 0000.0001) %MON dynstat_eta_del2             =   0.0000000000000E+00
(PID.TID 0000.0001) %MON dynstat_uvel_max             =   3.8588909729170E+01
(PID.TID 0000.0001) %MON dynstat_uvel_min             =  -2.6640751857540E+01
(PID.TID 0000.0001) %MON dynstat_uvel_mean            =   1.1767582051515E+01
(PID.TID 0000.0001) %MON dynstat_uvel_sd              =   1.8925013763619E+01
(PID.TID 0000.0001) %MON dynstat_uvel_del2            =   3.3977035061841E-02
(PID.TID 0000.0001) %MON dynstat_vvel_max             =   3.8588909729170E+01
(PID.TID 0000.0001) %MON dynstat_vvel_min             =  -2.6640751857540E+01
(PID.TID 0000.0001) %MON dynstat_vvel_mean            =   1.1767582051515E+01
(PID.TID 0000.0001) %MON dynstat_vvel_sd              =   1.8925013763619E+01
(PID.TID 0000.0001) %MON dynstat_vvel_del2            =   3.3977035061841E-02
(PID.TID 0000.0001) %MON dynstat_wvel_max             =   4.8259469367879E-15
(PID.TID 0000.0001) %MON dynstat_wvel_min             =  -4.8259469367879E-15
(PID.TID 0000.0001) %MON dynstat_wvel_mean            =  -2.6408038640800E-34
(PID.TID 0000.0001) %MON dynstat_wvel_sd              =   1.3451301434752E-15
(PID.TID 0000.0001) %MON dynstat_wvel_del2            =   1.3733452540939E-15
(PID.TID 0000.0001) %MON dynstat_theta_max            =   1.8137931198984E+00
(PID.TID 0000.0001) %MON dynstat_theta_min            =   9.9992250186214E-01
(PID.TID 0000.0001) %MON dynstat_theta_mean           =   1.0066874826115E+00
(PID.TID 0000.0001) %MON dynstat_theta_sd             =   5.6316233880680E-02
(PID.TID 0000.0001) %MON dynstat_theta_del2           =   3.7595263046450E-04
(PID.TID 0000.0001) %MON dynstat_salt_max             =   1.8542448987481E+00
(PID.TID 0000.0001) %MON dynstat_salt_min             =   9.9979454113340E-01
(PID.TID 0000.0001) %MON dynstat_salt_mean            =   1.0068753199031E+00
(PID.TID 0000.0001) %MON dynstat_salt_sd              =   5.8849306092550E-02
(PID.TID 0000.0001) %MON dynstat_salt_del2            =   4.0602829033290E-04
(PID.TID 0000.0001) %MON advcfl_uvel_max              =   1.0218201555446E+00
(PID.TID 0000.0001) %MON advcfl_vvel_max              =   1.0218201555446E+00
(PID.TID 0000.0001) %MON advcfl_wvel_max              =   3.4746817944873E-16
(PID.TID 0000.0001) %MON advcfl_W_hf_max              =   0.0000000000000E+00
(PID.TID 0000.0001) %MON ke_max                       =   7.4455150023606E+02
(PID.TID 0000.0001) %MON ke_mean                      =   4.9661803126781E+02
(PID.TID 0000.0001) %MON ke_volint                    =   2.5323489810542E+22
(PID.TID 0000.0001) %MON ke_volmean                   =   4.9663214534537E+02
(PID.TID 0000.0001) // =======================================================
(PID.TID 0000.0001) // End MONITOR dynamic field statistics
(PID.TID 0000.0001) // =======================================================
(PID.TID 0000.0001) // =======================================================
(PID.TID 0000.0001) // Begin MONITOR dynamic field statistics
(PID.TID 0000.0001) // =======================================================
(PID.TID 0000.0001) %MON time_tsnumber                =                   204
(PID.TID 0000.0001) %MON time_secondsf                =   7.3440000000000E+05
(PID.TID 0000.0001) %MON time_secondsi                =                734400
(PID.TID 0000.0001) %MON dynstat_eta_max              =   0.0000000000000E+00
(PID.TID 0000.0001) %MON dynstat_eta_min              =   0.0000000000000E+00
(PID.TID 0000.0001) %MON dynstat_eta_mean             =   0.0000000000000E+00
(PID.TID 0000.0001) %MON dynstat_eta_sd               =   0.0000000000000E+00
(PID.TID 0000.0001) %MON dynstat_eta_del2             =   0.0000000000000E+00
(PID.TID 0000.0001) %MON dynstat_uvel_max             =   3.8588909729170E+01
(PID.TID 0000.0001) %MON dynstat_uvel_min             =  -2.6640751857540E+01
(PID.TID 0000.0001) %MON dynstat_uvel_mean            =   1.1767582051515E+01
(PID.TID 0000.0001) %MON dynstat_uvel_sd              =   1.8925013763619E+01
(PID.TID 0000.0001) %MON dynstat_uvel_del2            =   3.3977035061841E-02
(PID.TID 0000.0001) %MON dynstat_vvel_max             =   3.8588909729170E+01
(PID.TID 0000.0001) %MON dynstat_vvel_min             =  -2.6640751857540E+01
(PID.TID 0000.0001) %MON dynstat_vvel_mean            =   1.1767582051515E+01
(PID.TID 0000.0001) %MON dynstat_vvel_sd              =   1.8925013763619E+01
(PID.TID 0000.0001) %MON dynstat_vvel_del2            =   3.3977035061841E-02
(PID.TID 0000.0001) %MON dynstat_wvel_max             =   4.8259469367879E-15
(PID.TID 0000.0001) %MON dynstat_wvel_min             =  -4.8259469367879E-15
(PID.TID 0000.0001) %MON dynstat_wvel_mean            =  -2.6408038640800E-34
(PID.TID 0000.0001) %MON dynstat_wvel_sd              =   1.3451301434752E-15
(PID.TID 0000.0001) %MON dynstat_wvel_del2            =   1.3733452540939E-15
(PID.TID 0000.0001) %MON dynstat_theta_max            =   1.8087395805489E+00
(PID.TID 0000.0001) %MON dynstat_theta_min            =   9.9986613843169E-01
(PID.TID 0000.0001) %MON dynstat_theta_mean           =   1.0066874826115E+00
(PID.TID 0000.0001) %MON dynstat_theta_sd             =   5.6199312687341E-02
(PID.TID 0000.0001) %MON dynstat_theta_del2           =   3.7743445441382E-04
(PID.TID 0000.0001) %MON dynstat_salt_max             =   1.8508105687584E+00
(PID.TID 0000.0001) %MON dynstat_salt_min             =   9.9962401547563E-01
(PID.TID 0000.0001) %MON dynstat_salt_mean            =   1.0068756041168E+00
(PID.TID 0000.0001) %MON dynstat_salt_sd              =   5.8731571425996E-02
(PID.TID 0000.0001) %MON dynstat_salt_del2            =   4.0080353496530E-04
(PID.TID 0000.0001) %MON advcfl_uvel_max              =   1.0218201555446E+00
(PID.TID 0000.0001) %MON advcfl_vvel_max              =   1.0218201555446E+00
(PID.TID 0000.0001) %MON advcfl_wvel_max              =   3.4746817944873E-16
(PID.TID 0000.0001) %MON advcfl_W_hf_max              =   0.0000000000000E+00
(PID.TID 0000.0001) %MON ke_max                       =   7.4455150023606E+02
(PID.TID 0000.0001) %MON ke_mean                      =   4.9661803126781E+02
(PID.TID 0000.0001) %MON ke_volint                    =   2.5323489810542E+22
(PID.TID 0000.0001) %MON ke_volmean                   =   4.9663214534537E+02
(PID.TID 0000.0001) // =======================================================
(PID.TID 0000.0001) // End MONITOR dynamic field statistics
(PID.TID 0000.0001) // =======================================================
(PID.TID 0000.0001) // =======================================================
(PID.TID 0000.0001) // Begin MONITOR dynamic field statistics
(PID.TID 0000.0001) // =======================================================
(PID.TID 0000.0001) %MON time_tsnumber                =                   210
(PID.TID 0000.0001) %MON time_secondsf                =   7.5600000000000E+05
(PID.TID 0000.0001) %MON time_secondsi                =                756000
(PID.TID 0000.0001) %MON dynstat_eta_max              =   0.0000000000000E+00
(PID.TID 0000.0001) %MON dynstat_eta_min              =   0.0000000000000E+00
(PID.TID 0000.0001) %MON dynstat_eta_mean             =   0.0000000000000E+00
(PID.TID 0000.0001) %MON dynstat_eta_sd               =   0.0000000000000E+00
(PID.TID 0000.0001) %MON dynstat_eta_del2             =   0.0000000000000E+00
(PID.TID 0000.0001) %MON dynstat_uvel_max             =   3.8588909729170E+01
(PID.TID 0000.0001) %MON dynstat_uvel_min             =  -2.6640751857540E+01
(PID.TID 0000.0001) %MON dynstat_uvel_mean            =   1.1767582051515E+01
(PID.TID 0000.0001) %MON dynstat_uvel_sd              =   1.8925013763619E+01
(PID.TID 0000.0001) %MON dynstat_uvel_del2            =   3.3977035061841E-02
(PID.TID 0000.0001) %MON dynstat_vvel_max             =   3.8588909729170E+01
(PID.TID 0000.0001) %MON dynstat_vvel_min             =  -2.6640751857540E+01
(PID.TID 0000.0001) %MON dynstat_vvel_mean            =   1.1767582051515E+01
(PID.TID 0000.0001) %MON dynstat_vvel_sd              =   1.8925013763619E+01
(PID.TID 0000.0001) %MON dynstat_vvel_del2            =   3.3977035061841E-02
(PID.TID 0000.0001) %MON dynstat_wvel_max             =   4.8259469367879E-15
(PID.TID 0000.0001) %MON dynstat_wvel_min             =  -4.8259469367879E-15
(PID.TID 0000.0001) %MON dynstat_wvel_mean            =  -2.6408038640800E-34
(PID.TID 0000.0001) %MON dynstat_wvel_sd              =   1.3451301434752E-15
(PID.TID 0000.0001) %MON dynstat_wvel_del2            =   1.3733452540939E-15
(PID.TID 0000.0001) %MON dynstat_theta_max            =   1.8044995231353E+00
(PID.TID 0000.0001) %MON dynstat_theta_min            =   9.9989113463146E-01
(PID.TID 0000.0001) %MON dynstat_theta_mean           =   1.0066874826115E+00
(PID.TID 0000.0001) %MON dynstat_theta_sd             =   5.6080851996449E-02
(PID.TID 0000.0001) %MON dynstat_theta_del2           =   3.7719969225375E-04
(PID.TID 0000.0001) %MON dynstat_salt_max             =   1.8494235164179E+00
(PID.TID 0000.0001) %MON dynstat_salt_min             =   9.9944852290657E-01
(PID.TID 0000.0001) %MON dynstat_salt_mean            =   1.0068755992709E+00
(PID.TID 0000.0001) %MON dynstat_salt_sd              =   5.8607482489595E-02
(PID.TID 0000.0001) %MON dynstat_salt_del2            =   4.0084401547614E-04
(PID.TID 0000.0001) %MON advcfl_uvel_max              =   1.0218201555446E+00
(PID.TID 0000.0001) %MON advcfl_vvel_max              =   1.0218201555446E+00
(PID.TID 0000.0001) %MON advcfl_wvel_max              =   3.4746817944873E-16
(PID.TID 0000.0001) %MON advcfl_W_hf_max              =   0.0000000000000E+00
(PID.TID 0000.0001) %MON ke_max                       =   7.4455150023606E+02
(PID.TID 0000.0001) %MON ke_mean                      =   4.9661803126781E+02
(PID.TID 0000.0001) %MON ke_volint                    =   2.5323489810542E+22
(PID.TID 0000.0001) %MON ke_volmean                   =   4.9663214534537E+02
(PID.TID 0000.0001) // =======================================================
(PID.TID 0000.0001) // End MONITOR dynamic field statistics
(PID.TID 0000.0001) // =======================================================
(PID.TID 0000.0001) // =======================================================
(PID.TID 0000.0001) // Begin MONITOR dynamic field statistics
(PID.TID 0000.0001) // =======================================================
(PID.TID 0000.0001) %MON time_tsnumber                =                   216
(PID.TID 0000.0001) %MON time_secondsf                =   7.7760000000000E+05
(PID.TID 0000.0001) %MON time_secondsi                =                777600
(PID.TID 0000.0001) %MON dynstat_eta_max              =   0.0000000000000E+00
(PID.TID 0000.0001) %MON dynstat_eta_min              =   0.0000000000000E+00
(PID.TID 0000.0001) %MON dynstat_eta_mean             =   0.0000000000000E+00
(PID.TID 0000.0001) %MON dynstat_eta_sd               =   0.0000000000000E+00
(PID.TID 0000.0001) %MON dynstat_eta_del2             =   0.0000000000000E+00
(PID.TID 0000.0001) %MON dynstat_uvel_max             =   3.8588909729170E+01
(PID.TID 0000.0001) %MON dynstat_uvel_min             =  -2.6640751857540E+01
(PID.TID 0000.0001) %MON dynstat_uvel_mean            =   1.1767582051515E+01
(PID.TID 0000.0001) %MON dynstat_uvel_sd              =   1.8925013763619E+01
(PID.TID 0000.0001) %MON dynstat_uvel_del2            =   3.3977035061841E-02
(PID.TID 0000.0001) %MON dynstat_vvel_max             =   3.8588909729170E+01
(PID.TID 0000.0001) %MON dynstat_vvel_min             =  -2.6640751857540E+01
(PID.TID 0000.0001) %MON dynstat_vvel_mean            =   1.1767582051515E+01
(PID.TID 0000.0001) %MON dynstat_vvel_sd              =   1.8925013763619E+01
(PID.TID 0000.0001) %MON dynstat_vvel_del2            =   3.3977035061841E-02
(PID.TID 0000.0001) %MON dynstat_wvel_max             =   4.8259469367879E-15
(PID.TID 0000.0001) %MON dynstat_wvel_min             =  -4.8259469367879E-15
(PID.TID 0000.0001) %MON dynstat_wvel_mean            =  -2.6408038640800E-34
(PID.TID 0000.0001) %MON dynstat_wvel_sd              =   1.3451301434752E-15
(PID.TID 0000.0001) %MON dynstat_wvel_del2            =   1.3733452540939E-15
(PID.TID 0000.0001) %MON dynstat_theta_max            =   1.8008124542689E+00
(PID.TID 0000.0001) %MON dynstat_theta_min            =   9.9985365317302E-01
(PID.TID 0000.0001) %MON dynstat_theta_mean           =   1.0066874826115E+00
(PID.TID 0000.0001) %MON dynstat_theta_sd             =   5.5964777983694E-02
(PID.TID 0000.0001) %MON dynstat_theta_del2           =   3.7319407084881E-04
(PID.TID 0000.0001) %MON dynstat_salt_max             =   1.8453475101445E+00
(PID.TID 0000.0001) %MON dynstat_salt_min             =   9.9942531122178E-01
(PID.TID 0000.0001) %MON dynstat_salt_mean            =   1.0068755991474E+00
(PID.TID 0000.0001) %MON dynstat_salt_sd              =   5.8485330634820E-02
(PID.TID 0000.0001) %MON dynstat_salt_del2            =   4.0021711263858E-04
(PID.TID 0000.0001) %MON advcfl_uvel_max              =   1.0218201555446E+00
(PID.TID 0000.0001) %MON advcfl_vvel_max              =   1.0218201555446E+00
(PID.TID 0000.0001) %MON advcfl_wvel_max              =   3.4746817944873E-16
(PID.TID 0000.0001) %MON advcfl_W_hf_max              =   0.0000000000000E+00
(PID.TID 0000.0001) %MON ke_max                       =   7.4455150023606E+02
(PID.TID 0000.0001) %MON ke_mean                      =   4.9661803126781E+02
(PID.TID 0000.0001) %MON ke_volint                    =   2.5323489810542E+22
(PID.TID 0000.0001) %MON ke_volmean                   =   4.9663214534537E+02
(PID.TID 0000.0001) // =======================================================
(PID.TID 0000.0001) // End MONITOR dynamic field statistics
(PID.TID 0000.0001) // =======================================================
(PID.TID 0000.0001) // =======================================================
(PID.TID 0000.0001) // Field Current uVel   at iteration        216
(PID.TID 0000.0001) // CMIN =         -2.664075185753955E+01
(PID.TID 0000.0001) // CMAX =          3.858890972916976E+01
(PID.TID 0000.0001) // CINT =          2.415913392100345E+00
(PID.TID 0000.0001) // SYMBOLS (CMIN->CMAX): -abcdefghijklmnopqrstuvwxyz+
(PID.TID 0000.0001) //                  0.0: .
(PID.TID 0000.0001) // RANGE I (Lo:Hi:Step):(   1: 192:   1)
(PID.TID 0000.0001) // RANGE J (Lo:Hi:Step):(  32:   1:  -1)
(PID.TID 0000.0001) // RANGE K (Lo:Hi:Step):(   1:   1:   1)
(PID.TID 0000.0001) // =======================================================
(PID.TID 0000.0001) K =   1
(PID.TID 0000.0001)                I=10      I=20      I=30      I=40      I=50      I=60      I=70      I=80      I=90      I=100     I=110     I=120     I=130     I=140     I=150     I=160     I=170     I=180     I=190
(PID.TID 0000.0001) |--J--|123456789|123456789|123456789|123456789|123456789|123456789|123456789|123456789|123456789|123456789|123456789|123456789|123456789|123456789|123456789|123456789|123456789|123456789|123456789|12
(PID.TID 0000.0001)     32 xwwwwwwwwwwwwwwwwwwwwwwwwwwwwwwwxwwwwwwwwwwwwwwwwwwwwwwwwwwwwwwwea-----------------------------aeijjkkkkkkkkkkkk.kkkkkkkkkkkkllmeijjkkkkkkkkkkkk.kkkkkkkkkkkkllmquvvvvvvvvvvvvvvvvvvvvvvvvvvvvvu
(PID.TID 0000.0001)     31 xxxxwwwwwwwwwwwwwwwwwwwwwwwwwxxxxxxxwwwwwwwwwwwwwwwwwwwwwwwwwxxxecbaaaaaaaaaaaaaaaaaaaaaaaaaaabcegiijjjjkkkkkkkk.kkkkkkkkllllmmoegiijjjjkkkkkkkk.kkkkkkkkllllmmoqstuuuuuuuuuuuuuuuuuuuuuuuuuuuts
(PID.TID 0000.0001)     30 yxxxxxxxxxxxxxxxxxxxxxxxxxxxxxxxyxxxxxxxxxxxxxxxxxxxxxxxxxxxxxxxedcbbbaaaaaaaaaaaaaaaaaaaaabbbcdeghiijjjjjkkkkkk.kkkkkklllllmmnpeghiijjjjjkkkkkk.kkkkkklllllmmnpqrstttuuuuuuuuuuuuuuuuuuuuutttsr
(PID.TID 0000.0001)     29 yyyyxxxxxxxxxxxxxxxxxxxxxxxxxyyyyyyyxxxxxxxxxxxxxxxxxxxxxxxxxyyyeddccbbbbbbbbbbbbbbbbbbbbbbbccddefghiijjjjjkkkkk.kkkkklllllmmnopefghiijjjjjkkkkk.kkkkklllllmmnopqrssstttttttttttttttttttttttsssr
(PID.TID 0000.0001)     28 yyyyyyyyyyyxxxxxxxxxxxyyyyyyyyyyyyyyyyyyyyyxxxxxxxxxxxyyyyyyyyyyfeddccccccbbbbbbbbbbbbbccccccddeffghiiijjjjjkkkk.kkkklllllmmnnopffghiiijjjjjkkkk.kkkklllllmmnnoppqrrssssstttttttttttttttsssssrrq
(PID.TID 0000.0001)     27 yyyyyyyyyyyyyyyyyyyyyyyyyyyyyyyyyyyyyyyyyyyyyyyyyyyyyyyyyyyyyyyyfeeddddcccccccccccccccccccddddeefgghhiijjjjjkkkk.kkkklllllmmnnoofgghhiijjjjjkkkk.kkkklllllmmnnoopqqrrrsssssssssssssssssssssrrrqq
(PID.TID 0000.0001)     26 zzzzyyyyyyyyyyyyyyyyyyyyyyyyyzzzzzzzyyyyyyyyyyyyyyyyyyyyyyyyyzzzffeeedddddddddddddddddddddddeeeffgghhiijjjjjkkkk.kkklllllmmmnnoofgghhiijjjjjkkkk.kkklllllmmmnnooppqqqrrrrrrrrrrrrrrrrrrrrrrrqqqp
(PID.TID 0000.0001)     25 zzzzzzzzzzzzzzzzzzzzzzzzzzzzzzzzzzzzzzzzzzzzzzzzzzzzzzzzzzzzzzzzgfffeeeeeeeedddddddddeeeeeeeefffgghhiiijjjjjkkkk.kkklllllmmmnnnogghhiiijjjjjkkkk.kkklllllmmmnnnoopppqqqqqqrrrrrrrrrrrrrqqqqqqppp
(PID.TID 0000.0001)     24 zzzzzzzzzzzzzzzzzzzzzzzzzzzzzzzzzzzzzzzzzzzzzzzzzzzzzzzzzzzzzzzzgggfffffeeeeeeeeeeeeeeeeefffffggghhhiiijjjjjkkkk.kkkllllllmmmnnnghhhiiijjjjjkkkk.kkkllllllmmmnnnoopppppqqqqqqqqqqqqqqqqqqqpppppo
(PID.TID 0000.0001)     23 zzzzzzzzzzzzzzzzzzzzzzzzzzzzzzzzzzzzzzzzzzzzzzzzzzzzzzzzzzzzzzzzhggggfffffffffffffffffffffffgggghhhiiiijjjjjkkkk.kkkklllllmmmmnnhhhiiiijjjjjkkkk.kkkklllllmmmmnnnoooopppppppppppppppppppppppoooo
(PID.TID 0000.0001)     22 zzzzzzzzzzzzzzzzzzzzzzzzzzzzzzzzzzzzzzzzzzzzzzzzzzzzzzzzzzzzzzzzhhhhggggggggggggggggggggggggghhhhhiiiijjjjjjkkkk.kkkkllllllmmmmnhhiiiijjjjjjkkkk.kkkkllllllmmmmnnnnooooooooooooooooooooooooooonn
(PID.TID 0000.0001)     21 ++++++++++++++++++++++++++++++++++++++++++++++++++++++++++++++++ihhhhhhhhhhggggggggggghhhhhhhhhhiiiiijjjjjjkkkkk.kkkkkllllllmmmmiiiiijjjjjjkkkkk.kkkkkllllllmmmmmnnnnnnnnnooooooooooooonnnnnnnnn
(PID.TID 0000.0001)     20 ++++++++++++++++++++++++++++++++++++++++++++++++++++++++++++++++iiiiiihhhhhhhhhhhhhhhhhhhhhiiiiiiiijjjjjjjkkkkkk.kkkkkklllllllmmiiijjjjjjjkkkkkk.kkkkkklllllllmmmmmmmmnnnnnnnnnnnnnnnnnnnnnmmmmm
(PID.TID 0000.0001)     19 ++++++++++++++++++++++++++++++++++++++++++++++++++++++++++++++++jjiiiiiiiiiiiiiiiiiiiiiiiiiiiiijjjjjjjjjkkkkkkkk.kkkkkkklllllllljjjjjjjjkkkkkkkk.kkkkkkkllllllllllmmmmmmmmmmmmmmmmmmmmmmmmmmmmml
(PID.TID 0000.0001)     18 ++++++++++++++++++++++++++++++++++++++++++++++++++++++++++++++++jjjjjjjjjjjjjjjjjjjjjjjjjjjjjjjjjjjjjkkkkkkkkkkk.kkkkkkkkkkklllljjjjjkkkkkkkkkkk.kkkkkkkkkkkllllllllllllllllllllllllllllllllllll
(PID.TID 0000.0001)     17 ++++++++++++++++++++++++++++++++++++++++++++++++++++++++++++++++kkkkkkkkkkkkkkkkkkkkkkkkkkkkkkkkkkkkkkkkkkkkkkkk.kkkkkkkkkkkkkkkkkkkkkkkkkkkkkkk.kkkkkkkkkkkkkkkkkkkkkkkkkkkkkkkkkkkkkkkkkkkkkkk
(PID.TID 0000.0001)     16 ++++++++++++++++++++++++++++++++++++++++++++++++++++++++++++++++kkkkkkkkkkkkkkkkkkkkkkkkkkkkkkkkkkkkkkkkkkkkkkkk.kkkkkkkkkkkkkkkkkkkkkkkkkkkkkkk.kkkkkkkkkkkkkkkkkkkkkkkkkkkkkkkkkkkkkkkkkkkkkkk
(PID.TID 0000.0001)     15 ++++++++++++++++++++++++++++++++++++++++++++++++++++++++++++++++lllllllllllllllllllllllllllllllllllllkkkkkkkkkkk.kkkkkkkkkkkjjjjlllllkkkkkkkkkkk.kkkkkkkkkkkjjjjjjjjjjjjjjjjjjjjjjjjjjjjjjjjjjjj
(PID.TID 0000.0001)     14 ++++++++++++++++++++++++++++++++++++++++++++++++++++++++++++++++llmmmmmmmmmmmmmmmmmmmmmmmmmmmmmllllllllllkkkkkkk.kkkkkkkkjjjjjjjlllllllllkkkkkkk.kkkkkkkkjjjjjjjjjiiiiiiiiiiiiiiiiiiiiiiiiiiiiij
(PID.TID 0000.0001)     13 ++++++++++++++++++++++++++++++++++++++++++++++++++++++++++++++++mmmmmmnnnnnnnnnnnnnnnnnnnnnmmmmmmmmlllllllkkkkkk.kkkkkkjjjjjjjiimmmlllllllkkkkkk.kkkkkkjjjjjjjiiiiiiiihhhhhhhhhhhhhhhhhhhhhiiiii
(PID.TID 0000.0001)     12 ++++++++++++++++++++++++++++++++++++++++++++++++++++++++++++++++mnnnnnnnnnooooooooooooonnnnnnnnnmmmmmllllllkkkkk.kkkkkjjjjjjiiiimmmmmllllllkkkkk.kkkkkjjjjjjiiiiihhhhhhhhhhggggggggggghhhhhhhhhh
(PID.TID 0000.0001)     11 zzzzzzzzzzzzzzzzzzzzzzzzzzzzzzzzzzzzzzzzzzzzzzzzzzzzzzzzzzzzzzzznnnooooooooooooooooooooooooooonnnnmmmmllllllkkkk.kkkkjjjjjjiiiihnnmmmmllllllkkkk.kkkkjjjjjjiiiihhhhhggggggggggggggggggggggggghhh
(PID.TID 0000.0001)     10 zzzzzzzzzzzzzzzzzzzzzzzzzzzzzzzzzzzzzzzzzzzzzzzzzzzzzzzzzzzzzzzznoooopppppppppppppppppppppppoooonnnmmmmlllllkkkk.kkkkjjjjjiiiihhnnnmmmmlllllkkkk.kkkkjjjjjiiiihhhggggfffffffffffffffffffffffgggg
(PID.TID 0000.0001)      9 zzzzzzzzzzzzzzzzzzzzzzzzzzzzzzzzzzzzzzzzzzzzzzzzzzzzzzzzzzzzzzzzoopppppqqqqqqqqqqqqqqqqqqqpppppoonnnmmmllllllkkk.kkkkjjjjjiiihhhonnnmmmllllllkkk.kkkkjjjjjiiihhhgggfffffeeeeeeeeeeeeeeeeefffffgg
(PID.TID 0000.0001)      8 zzzzzzzzzzzzzzzzzzzzzzzzzzzzzzzzzzzzzzzzzzzzzzzzzzzzzzzzzzzzzzzzopppqqqqqqrrrrrrrrrrrrrqqqqqqpppoonnnmmmlllllkkk.kkkkjjjjjiiihhgoonnnmmmlllllkkk.kkkkjjjjjiiihhggfffeeeeeeeedddddddddeeeeeeeefff
(PID.TID 0000.0001)      7 zzzzyyyyyyyyyyyyyyyyyyyyyyyyyzzzzzzzyyyyyyyyyyyyyyyyyyyyyyyyyzzzppqqqrrrrrrrrrrrrrrrrrrrrrrrqqqppoonnmmmlllllkkk.kkkkjjjjjiihhggpoonnmmmlllllkkk.kkkkjjjjjiihhggffeeedddddddddddddddddddddddeeef
(PID.TID 0000.0001)      6 yyyyyyyyyyyyyyyyyyyyyyyyyyyyyyyyyyyyyyyyyyyyyyyyyyyyyyyyyyyyyyyypqqrrrsssssssssssssssssssssrrrqqpoonnmmlllllkkkk.kkkkjjjjjiihhggpoonnmmlllllkkkk.kkkkjjjjjiihhggfeeddddcccccccccccccccccccddddee
(PID.TID 0000.0001)      5 yyyyyyyyyyyxxxxxxxxxxxyyyyyyyyyyyyyyyyyyyyyxxxxxxxxxxxyyyyyyyyyypqrrssssstttttttttttttttsssssrrqpponnmmlllllkkkk.kkkkjjjjjiiihgfpponnmmlllllkkkk.kkkkjjjjjiiihgffeddccccccbbbbbbbbbbbbbccccccdde
(PID.TID 0000.0001)      4 yyyyxxxxxxxxxxxxxxxxxxxxxxxxxyyyyyyyxxxxxxxxxxxxxxxxxxxxxxxxxyyyqrssstttttttttttttttttttttttsssrqponmmlllllkkkkk.kkkkkjjjjjiihgfqponmmlllllkkkkk.kkkkkjjjjjiihgfeddccbbbbbbbbbbbbbbbbbbbbbbbccdd
(PID.TID 0000.0001)      3 yxxxxxxxxxxxxxxxxxxxxxxxxxxxxxxxyxxxxxxxxxxxxxxxxxxxxxxxxxxxxxxxqrstttuuuuuuuuuuuuuuuuuuuuutttsrqpnmmlllllkkkkkk.kkkkkkjjjjjiihgqpnmmlllllkkkkkk.kkkkkkjjjjjiihgedcbbbaaaaaaaaaaaaaaaaaaaaabbbcd
(PID.TID 0000.0001)      2 xxxxwwwwwwwwwwwwwwwwwwwwwwwwwxxxxxxxwwwwwwwwwwwwwwwwwwwwwwwwwxxxqstuuuuuuuuuuuuuuuuuuuuuuuuuuutsqommllllkkkkkkkk.kkkkkkkkjjjjiigqommllllkkkkkkkk.kkkkkkkkjjjjiigecbaaaaaaaaaaaaaaaaaaaaaaaaaaabc
(PID.TID 0000.0001)      1 xwwwwwwwwwwwwwwwwwwwwwwwwwwwwwwwxwwwwwwwwwwwwwwwwwwwwwwwwwwwwwwwquvvvvvvvvvvvvvvvvvvvvvvvvvvvvvuqmllkkkkkkkkkkkk.kkkkkkkkkkkkjjiqmllkkkkkkkkkkkk.kkkkkkkkkkkkjjiea-----------------------------a
(PID.TID 0000.0001) // =======================================================
(PID.TID 0000.0001) // END OF FIELD                                          =
(PID.TID 0000.0001) // =======================================================
(PID.TID 0000.0001) 
(PID.TID 0000.0001) // =======================================================
(PID.TID 0000.0001) // Field Current vVel   at iteration        216
(PID.TID 0000.0001) // CMIN =         -2.664075185753955E+01
(PID.TID 0000.0001) // CMAX =          3.858890972916976E+01
(PID.TID 0000.0001) // CINT =          2.415913392100345E+00
(PID.TID 0000.0001) // SYMBOLS (CMIN->CMAX): -abcdefghijklmnopqrstuvwxyz+
(PID.TID 0000.0001) //                  0.0: .
(PID.TID 0000.0001) // RANGE I (Lo:Hi:Step):(   1: 192:   1)
(PID.TID 0000.0001) // RANGE J (Lo:Hi:Step):(  32:   1:  -1)
(PID.TID 0000.0001) // RANGE K (Lo:Hi:Step):(   1:   1:   1)
(PID.TID 0000.0001) // =======================================================
(PID.TID 0000.0001) K =   1
(PID.TID 0000.0001)                I=10      I=20      I=30      I=40      I=50      I=60      I=70      I=80      I=90      I=100     I=110     I=120     I=130     I=140     I=150     I=160     I=170     I=180     I=190
(PID.TID 0000.0001) |--J--|123456789|123456789|123456789|123456789|123456789|123456789|123456789|123456789|123456789|123456789|123456789|123456789|123456789|123456789|123456789|123456789|123456789|123456789|123456789|12
(PID.TID 0000.0001)     32 iggffggghhhiijjkkllmmnnnooopppomiggffggghhhiijjkkllmmnnnooopppomacddeeffgghhijjkkllmnnooppqqrrsuwxxyyyzzzzz++++++++++zzzzzyyyxxwwxxyyyzzzzz++++++++++zzzzzyyyxxwusrrqqppoonnmllkkjjihhggffeeddca
(PID.TID 0000.0001)     31 jihgggghhhiiijjkkllmmmnnnoooonmljihgggghhhiiijjkkllmmmnnnoooonml-bcddeefgghhiijkklmmnnoppqqrsstvwxxyyyzzzzz++++++++++zzzzzyyyxxwwxxyyyzzzzz++++++++++zzzzzyyyxxwvtssrqqpponnmmlkkjiihhggfeeddcb-
(PID.TID 0000.0001)     30 jiihhhhhhiiijjjkklllmmmnnnnnnmmljiihhhhhhiiijjjkklllmmmnnnnnnmml-abcddeffghhiijkklmmnooppqrrstuvwxxyyyzzzzz++++++++++zzzzzyyyxxwwxxyyyzzzzz++++++++++zzzzzyyyxxwvutsrrqppoonmmlkkjiihhgffeddcba-
(PID.TID 0000.0001)     29 kjiiihhiiiiijjjkklllmmmmnnnnmmlkkjiiihhiiiiijjjkklllmmmmnnnnmmlk-abccdeefgghiijkklmmnoopqqrsstuvwwxxyyyzzzz++++++++++zzzzyyyxxwwwwxxyyyzzzz++++++++++zzzzyyyxxwwvutssrqqpoonmmlkkjiihggfeedccba-
(PID.TID 0000.0001)     28 kjjiiiiiiiijjjkkkklllmmmmmmmmllkkjjiiiiiiiijjjkkkklllmmmmmmmmllk-abbcddeffghiijkklmmnoppqrrsttuvwwxxyyyzzzz++++++++++zzzzyyyxxwwwwxxyyyzzzz++++++++++zzzzyyyxxwwvuttsrrqpponmmlkkjiihgffeddcbba-
(PID.TID 0000.0001)     27 kjjjiiiiiijjjjkkkkllllmmmmmmlllkkjjjiiiiiijjjjkkkkllllmmmmmmlllk-aabcddeffghhijkklmnnoppqrsstuuvwwxxyyyzzzz++++++++++zzzzyyyxxwwwwxxyyyzzzz++++++++++zzzzyyyxxwwvuutssrqpponnmlkkjihhgffeddcbaa-
(PID.TID 0000.0001)     26 kjjjjjjjjjjjjjkkkkllllllmmlllllkkjjjjjjjjjjjjjkkkkllllllmmlllllk-aabccdeffghhijkklmnnopqqrsstuuvwwxxyyyzzzz++++++++++zzzzyyyxxwwwwxxyyyzzzz++++++++++zzzzyyyxxwwvuutssrqqponnmlkkjihhgffedccbaa-
(PID.TID 0000.0001)     25 kkjjjjjjjjjjjkkkkkllllllllllllkkkkjjjjjjjjjjjkkkkkllllllllllllkk-aabccdeefghhijkklmnnopqqrsstuuvwwxxyyyzzzz++++++++++zzzzyyyxxwwwwxxyyyzzzz++++++++++zzzzyyyxxwwvuutssrqqponnmlkkjihhgfeedccbaa-
(PID.TID 0000.0001)     24 kkjjjjjjjjjjjkkkkkklllllllllllkkkkjjjjjjjjjjjkkkkkklllllllllllkk-aabccdeefghhijkklmnnopqqrsttuuvwwxxyyyzzzz++++++++++zzzzyyyxxwwwwxxyyyzzzz++++++++++zzzzyyyxxwwvuuttsrqqponnmlkkjihhgfeedccbaa-
(PID.TID 0000.0001)     23 kkkjjjjjjjjjkkkkkkkklllllllllkkkkkkjjjjjjjjjkkkkkkkklllllllllkkk-aabbcdeefghhijkklmnoopqrrsttuuvwwxxyyyzzzz++++++++++zzzzyyyxxwwwwxxyyyzzzz++++++++++zzzzyyyxxwwvuuttsrrqpoonmlkkjihhgfeedcbbaa-
(PID.TID 0000.0001)     22 kkkkjjjjjjjkkkkkkkkkklllllllkkkkkkkkjjjjjjjkkkkkkkkkklllllllkkkk-aabbcdeefgghijkklmnoopqrrsttuuvwwxxxyyzzzz++++++++++zzzzyyxxxwwwwxxxyyzzzz++++++++++zzzzyyxxxwwvuuttsrrqpoonmlkkjihggfeedcbbaa-
(PID.TID 0000.0001)     21 kkkkkkkkkkkkkkkkkkkkkkklllkkkkkkkkkkkkkkkkkkkkkkkkkkkkklllkkkkkk-aabbcddefgghijkklmnoopqrrsttuuvwwxxxyyzzzz++++++++++zzzzyyxxxwwwwxxxyyzzzz++++++++++zzzzyyxxxwwvuuttsrrqpoonmlkkjihggfeddcbbaa-
(PID.TID 0000.0001)     20 kkkkkkkkkkkkkkkkkkkkkkkkkkkkkkkkkkkkkkkkkkkkkkkkkkkkkkkkkkkkkkkk-aabbcddefgghijkklmnoopqrrsttuuvwwxxxyyzzzz++++++++++zzzzyyxxxwwwwxxxyyzzzz++++++++++zzzzyyxxxwwvuuttsrrqpoonmlkkjihggfeddcbbaa-
(PID.TID 0000.0001)     19 kkkkkkkkkkkkkkkkkkkkkkkkkkkkkkkkkkkkkkkkkkkkkkkkkkkkkkkkkkkkkkkk-aabbcddefgghijkklmnoopqrrsttuuvwwxxxyyzzzz++++++++++zzzzyyxxxwwwwxxxyyzzzz++++++++++zzzzyyxxxwwvuuttsrrqpoonmlkkjihggfeddcbbaa-
(PID.TID 0000.0001)     18 kkkkkkkkkkkkkkkkkkkkkkkkkkkkkkkkkkkkkkkkkkkkkkkkkkkkkkkkkkkkkkkk-aabbcddefgghijkklmnoopqrrsttuuvwwxxxyyzzzz++++++++++zzzzyyxxxwwwwxxxyyzzzz++++++++++zzzzyyxxxwwvuuttsrrqpoonmlkkjihggfeddcbbaa-
(PID.TID 0000.0001)     17 ................................................................-aabbcddefgghijkklmnoopqrrsttuuvwwxxxyyzzzz++++++++++zzzzyyxxxwwwwxxxyyzzzz++++++++++zzzzyyxxxwwvuuttsrrqpoonmlkkjihggfeddcbbaa-
(PID.TID 0000.0001)     16 kkkkkkkkkkkkkkkkkkkkkkkkkkkkkkkkkkkkkkkkkkkkkkkkkkkkkkkkkkkkkkkk-aabbcddefgghijkklmnoopqrrsttuuvwwxxxyyzzzz++++++++++zzzzyyxxxwwwwxxxyyzzzz++++++++++zzzzyyxxxwwvuuttsrrqpoonmlkkjihggfeddcbbaa-
(PID.TID 0000.0001)     15 kkkkkkkkkkkkkkkkkkkkkkkkkkkkkkkkkkkkkkkkkkkkkkkkkkkkkkkkkkkkkkkk-aabbcddefgghijkklmnoopqrrsttuuvwwxxxyyzzzz++++++++++zzzzyyxxxwwwwxxxyyzzzz++++++++++zzzzyyxxxwwvuuttsrrqpoonmlkkjihggfeddcbbaa-
(PID.TID 0000.0001)     14 kkkkkkkkkkkkkkkkkkkkkkkkkkkkkkkkkkkkkkkkkkkkkkkkkkkkkkkkkkkkkkkk-aabbcddefgghijkklmnoopqrrsttuuvwwxxxyyzzzz++++++++++zzzzyyxxxwwwwxxxyyzzzz++++++++++zzzzyyxxxwwvuuttsrrqpoonmlkkjihggfeddcbbaa-
(PID.TID 0000.0001)     13 kkkkkklllkkkkkkkkkkkkkkkkkkkkkkkkkkkkklllkkkkkkkkkkkkkkkkkkkkkkk-aabbcddefgghijkklmnoopqrrsttuuvwwxxxyyzzzz++++++++++zzzzyyxxxwwwwxxxyyzzzz++++++++++zzzzyyxxxwwvuuttsrrqpoonmlkkjihggfeddcbbaa-
(PID.TID 0000.0001)     12 kkkklllllllkkkkkkkkkkjjjjjjjkkkkkkkklllllllkkkkkkkkkkjjjjjjjkkkk-aabbcdeefgghijkklmnoopqrrsttuuvwwxxxyyzzzz++++++++++zzzzyyxxxwwwwxxxyyzzzz++++++++++zzzzyyxxxwwvuuttsrrqpoonmlkkjihggfeedcbbaa-
(PID.TID 0000.0001)     11 kkklllllllllkkkkkkkkjjjjjjjjjkkkkkklllllllllkkkkkkkkjjjjjjjjjkkk-aabbcdeefghhijkklmnoopqrrsttuuvwwxxyyyzzzz++++++++++zzzzyyyxxwwwwxxyyyzzzz++++++++++zzzzyyyxxwwvuuttsrrqpoonmlkkjihhgfeedcbbaa-
(PID.TID 0000.0001)     10 kklllllllllllkkkkkkjjjjjjjjjjjkkkklllllllllllkkkkkkjjjjjjjjjjjkk-aabccdeefghhijkklmnnopqqrsttuuvwwxxyyyzzzz++++++++++zzzzyyyxxwwwwxxyyyzzzz++++++++++zzzzyyyxxwwvuuttsrqqponnmlkkjihhgfeedccbaa-
(PID.TID 0000.0001)      9 kkllllllllllllkkkkkjjjjjjjjjjjkkkkllllllllllllkkkkkjjjjjjjjjjjkk-aabccdeefghhijkklmnnopqqrsstuuvwwxxyyyzzzz++++++++++zzzzyyyxxwwwwxxyyyzzzz++++++++++zzzzyyyxxwwvuutssrqqponnmlkkjihhgfeedccbaa-
(PID.TID 0000.0001)      8 klllllmmllllllkkkkjjjjjjjjjjjjjkklllllmmllllllkkkkjjjjjjjjjjjjjk-aabccdeffghhijkklmnnopqqrsstuuvwwxxyyyzzzz++++++++++zzzzyyyxxwwwwxxyyyzzzz++++++++++zzzzyyyxxwwvuutssrqqponnmlkkjihhgffedccbaa-
(PID.TID 0000.0001)      7 klllmmmmmmllllkkkkjjjjiiiiiijjjkklllmmmmmmllllkkkkjjjjiiiiiijjjk-aabcddeffghhijkklmnnoppqrsstuuvwwxxyyyzzzz++++++++++zzzzyyyxxwwwwxxyyyzzzz++++++++++zzzzyyyxxwwvuutssrqpponnmlkkjihhgffeddcbaa-
(PID.TID 0000.0001)      6 kllmmmmmmmmlllkkkkjjjiiiiiiiijjkkllmmmmmmmmlllkkkkjjjiiiiiiiijjk-abbcddeffghiijkklmmnoppqrrsttuvwwxxyyyzzzz++++++++++zzzzyyyxxwwwwxxyyyzzzz++++++++++zzzzyyyxxwwvuttsrrqpponmmlkkjiihgffeddcbba-
(PID.TID 0000.0001)      5 klmmnnnnmmmmlllkkjjjiiiiihhiiijkklmmnnnnmmmmlllkkjjjiiiiihhiiijk-abccdeefgghiijkklmmnoopqqrsstuvwwxxyyyzzzz++++++++++zzzzyyyxxwwwwxxyyyzzzz++++++++++zzzzyyyxxwwvutssrqqpoonmmlkkjiihggfeedccba-
(PID.TID 0000.0001)      4 lmmnnnnnnmmmlllkkjjjiiihhhhhhiijlmmnnnnnnmmmlllkkjjjiiihhhhhhiij-abcddeffghhiijkklmmnooppqrrstuvwxxyyyzzzzz++++++++++zzzzzyyyxxwwxxyyyzzzzz++++++++++zzzzzyyyxxwvutsrrqppoonmmlkkjiihhgffeddcba-
(PID.TID 0000.0001)      3 lmnoooonnnmmmllkkjjiiihhhgggghijlmnoooonnnmmmllkkjjiiihhhgggghij-bcddeefgghhiijkklmmnnoppqqrsstvwxxyyyzzzzz++++++++++zzzzzyyyxxwwxxyyyzzzzz++++++++++zzzzzyyyxxwvtssrqqpponnmmlkkjiihhggfeeddcb-
(PID.TID 0000.0001)      2 mopppooonnnmmllkkjjiihhhgggffggimopppooonnnmmllkkjjiihhhgggffggiacddeeffgghhijjkkllmnnooppqqrrsuwxxyyyzzzzz++++++++++zzzzzyyyxxwwxxyyyzzzzz++++++++++zzzzzyyyxxwusrrqqppoonnmllkkjjihhggffeeddca
(PID.TID 0000.0001)      1 qqqqpppoonnmmllkkjjiihhggfffeeeeqqqqpppoonnmmllkkjjiihhggfffeeeeeeeefffgghhiijjkkllmmnnoopppqqqqxxyyyyzzzzz++++++++++zzzzzyyyyxxxxyyyyzzzzz++++++++++zzzzzyyyyxxqqqqpppoonnmmllkkjjiihhggfffeeee
(PID.TID 0000.0001) // =======================================================
(PID.TID 0000.0001) // END OF FIELD                                          =
(PID.TID 0000.0001) // =======================================================
(PID.TID 0000.0001) 
(PID.TID 0000.0001) // =======================================================
(PID.TID 0000.0001) // Field Current theta  at iteration        216
(PID.TID 0000.0001) // CMIN =          9.998536531730197E-01
(PID.TID 0000.0001) // CMAX =          1.800812454268937E+00
(PID.TID 0000.0001) // CINT =          2.966514078133028E-02
(PID.TID 0000.0001) // SYMBOLS (CMIN->CMAX): -abcdefghijklmnopqrstuvwxyz+
(PID.TID 0000.0001) //                  0.0: .
(PID.TID 0000.0001) // RANGE I (Lo:Hi:Step):(   1: 192:   1)
(PID.TID 0000.0001) // RANGE J (Lo:Hi:Step):(  32:   1:  -1)
(PID.TID 0000.0001) // RANGE K (Lo:Hi:Step):(   1:   1:   1)
(PID.TID 0000.0001) // =======================================================
(PID.TID 0000.0001) K =   1
(PID.TID 0000.0001)                I=10      I=20      I=30      I=40      I=50      I=60      I=70      I=80      I=90      I=100     I=110     I=120     I=130     I=140     I=150     I=160     I=170     I=180     I=190
(PID.TID 0000.0001) |--J--|123456789|123456789|123456789|123456789|123456789|123456789|123456789|123456789|123456789|123456789|123456789|123456789|123456789|123456789|123456789|123456789|123456789|123456789|123456789|12
(PID.TID 0000.0001)     32 ------------------------------------------------------------------------------------------------------------------------------------------------------------------------------------------------
(PID.TID 0000.0001)     31 ------------------------------------------------------------------------------------------------------------------------------------------------------------------------------------------------
(PID.TID 0000.0001)     30 ------------------------------------------------------------------------------------------------------------------------------------------------------------------------------------------------
(PID.TID 0000.0001)     29 ------------------------------------------------------------------------------------------------------------------------------------------------------------------------------------------------
(PID.TID 0000.0001)     28 ------------------------------------------------------------------------------------------------------------------------------------------------------------------------------------------------
(PID.TID 0000.0001)     27 ------------------------------------------------------------------------------------------------------------------------------------------------------------------------------------------------
(PID.TID 0000.0001)     26 ------------------------------------------------------------------------------------------------------------------------------------------------------------------------------------------------
(PID.TID 0000.0001)     25 ------------------------------------------------------------------------------------------------------------------------------------------------------------------------------------------------
(PID.TID 0000.0001)     24 ------------------------------------------------------------------------------------------------------------------------------------------------------------------------------------------------
(PID.TID 0000.0001)     23 ------------------------------------------------------------------------------------------------------------------------------------------------------------------------------------------------
(PID.TID 0000.0001)     22 ------------------------------------------------------------------------------------------------------------------------------------------------------------------------------------------------
(PID.TID 0000.0001)     21 -----------aabccccbaa---------------------------------------------------------------------------------------------------------------------------------------------------------------------------
(PID.TID 0000.0001)     20 ----------abdfhiihfdba--------------------------------------------------------------------------------------------------------------------------------------------------------------------------
(PID.TID 0000.0001)     19 ----------adhloppolhdb--------------------------------------------------------------------------------------------------------------------------------------------------------------------------
(PID.TID 0000.0001)     18 ----------cglquwwuqlgc--------------------------------------------------------------------------------------------------------------------------------------------------------------------------
(PID.TID 0000.0001)     17 ----------chnty++ytnhca-------------------------------------------------------------------------------------------------------------------------------------------------------------------------
(PID.TID 0000.0001)     16 ----------chnty++ytnhca-------------------------------------------------------------------------------------------------------------------------------------------------------------------------
(PID.TID 0000.0001)     15 ----------cglquwwuqlgc--------------------------------------------------------------------------------------------------------------------------------------------------------------------------
(PID.TID 0000.0001)     14 ----------adhloppolhdb--------------------------------------------------------------------------------------------------------------------------------------------------------------------------
(PID.TID 0000.0001)     13 ----------abdfhiihfdba--------------------------------------------------------------------------------------------------------------------------------------------------------------------------
(PID.TID 0000.0001)     12 -----------aabccccbaa---------------------------------------------------------------------------------------------------------------------------------------------------------------------------
(PID.TID 0000.0001)     11 ------------------------------------------------------------------------------------------------------------------------------------------------------------------------------------------------
(PID.TID 0000.0001)     10 ------------------------------------------------------------------------------------------------------------------------------------------------------------------------------------------------
(PID.TID 0000.0001)      9 ------------------------------------------------------------------------------------------------------------------------------------------------------------------------------------------------
(PID.TID 0000.0001)      8 ------------------------------------------------------------------------------------------------------------------------------------------------------------------------------------------------
(PID.TID 0000.0001)      7 ------------------------------------------------------------------------------------------------------------------------------------------------------------------------------------------------
(PID.TID 0000.0001)      6 ------------------------------------------------------------------------------------------------------------------------------------------------------------------------------------------------
(PID.TID 0000.0001)      5 ------------------------------------------------------------------------------------------------------------------------------------------------------------------------------------------------
(PID.TID 0000.0001)      4 ------------------------------------------------------------------------------------------------------------------------------------------------------------------------------------------------
(PID.TID 0000.0001)      3 ------------------------------------------------------------------------------------------------------------------------------------------------------------------------------------------------
(PID.TID 0000.0001)      2 ------------------------------------------------------------------------------------------------------------------------------------------------------------------------------------------------
(PID.TID 0000.0001)      1 ------------------------------------------------------------------------------------------------------------------------------------------------------------------------------------------------
(PID.TID 0000.0001) // =======================================================
(PID.TID 0000.0001) // END OF FIELD                                          =
(PID.TID 0000.0001) // =======================================================
(PID.TID 0000.0001) 
(PID.TID 0000.0001) // =======================================================
(PID.TID 0000.0001) // Field Current etaN   at iteration        216
(PID.TID 0000.0001) // CMIN =          1.000000000000000E+32
(PID.TID 0000.0001) // CMAX =         -1.000000000000000E+32
(PID.TID 0000.0001) // CINT =          0.000000000000000E+00
(PID.TID 0000.0001) // SYMBOLS (CMIN->CMAX): -abcdefghijklmnopqrstuvwxyz+
(PID.TID 0000.0001) //                  0.0: .
(PID.TID 0000.0001) // RANGE I (Lo:Hi:Step):(  -2: 195:   1)
(PID.TID 0000.0001) // RANGE J (Lo:Hi:Step):(  35:  -2:  -1)
(PID.TID 0000.0001) // RANGE K (Lo:Hi:Step):(   1:   1:   1)
(PID.TID 0000.0001) // =======================================================
(PID.TID 0000.0001) K =   1
(PID.TID 0000.0001)                I=7       I=17      I=27      I=31      I=41      I=51      I=61      I=65      I=75      I=85      I=95      I=99      I=109     I=119     I=129     I=133     I=143     I=153     I=163     I=167     I=177     I=187
(PID.TID 0000.0001) |--J--|**0123456|890123456|890123456|890123450|234567890|234567890|234567890|234567234|678901234|678901234|678901234|678945678|012345678|012345678|012345678|016789012|456789012|456789012|456789012|890123456|890123456|890123456|89012345
(PID.TID 0000.0001)     35 ....................................................................................................................................................................................................................................
(PID.TID 0000.0001)     34 ....................................................................................................................................................................................................................................
(PID.TID 0000.0001)     33 ....................................................................................................................................................................................................................................
(PID.TID 0000.0001)     32 ....................................................................................................................................................................................................................................
(PID.TID 0000.0001)     31 ....................................................................................................................................................................................................................................
(PID.TID 0000.0001)     30 ....................................................................................................................................................................................................................................
(PID.TID 0000.0001)     29 ....................................................................................................................................................................................................................................
(PID.TID 0000.0001)     28 ....................................................................................................................................................................................................................................
(PID.TID 0000.0001)     27 ....................................................................................................................................................................................................................................
(PID.TID 0000.0001)     26 ....................................................................................................................................................................................................................................
(PID.TID 0000.0001)     25 ....................................................................................................................................................................................................................................
(PID.TID 0000.0001)     24 ....................................................................................................................................................................................................................................
(PID.TID 0000.0001)     23 ....................................................................................................................................................................................................................................
(PID.TID 0000.0001)     22 ....................................................................................................................................................................................................................................
(PID.TID 0000.0001)     21 ....................................................................................................................................................................................................................................
(PID.TID 0000.0001)     20 ....................................................................................................................................................................................................................................
(PID.TID 0000.0001)     19 ....................................................................................................................................................................................................................................
(PID.TID 0000.0001)     18 ....................................................................................................................................................................................................................................
(PID.TID 0000.0001)     17 ....................................................................................................................................................................................................................................
(PID.TID 0000.0001)     16 ....................................................................................................................................................................................................................................
(PID.TID 0000.0001)     15 ....................................................................................................................................................................................................................................
(PID.TID 0000.0001)     14 ....................................................................................................................................................................................................................................
(PID.TID 0000.0001)     13 ....................................................................................................................................................................................................................................
(PID.TID 0000.0001)     12 ....................................................................................................................................................................................................................................
(PID.TID 0000.0001)     11 ....................................................................................................................................................................................................................................
(PID.TID 0000.0001)     10 ....................................................................................................................................................................................................................................
(PID.TID 0000.0001)      9 ....................................................................................................................................................................................................................................
(PID.TID 0000.0001)      8 ....................................................................................................................................................................................................................................
(PID.TID 0000.0001)      7 ....................................................................................................................................................................................................................................
(PID.TID 0000.0001)      6 ....................................................................................................................................................................................................................................
(PID.TID 0000.0001)      5 ....................................................................................................................................................................................................................................
(PID.TID 0000.0001)      4 ....................................................................................................................................................................................................................................
(PID.TID 0000.0001)      3 ....................................................................................................................................................................................................................................
(PID.TID 0000.0001)      2 ....................................................................................................................................................................................................................................
(PID.TID 0000.0001)      1 ....................................................................................................................................................................................................................................
(PID.TID 0000.0001)      0 ....................................................................................................................................................................................................................................
(PID.TID 0000.0001)     -1 ....................................................................................................................................................................................................................................
(PID.TID 0000.0001)     -2 ....................................................................................................................................................................................................................................
(PID.TID 0000.0001) // =======================================================
(PID.TID 0000.0001) // END OF FIELD                                          =
(PID.TID 0000.0001) // =======================================================
(PID.TID 0000.0001) 
(PID.TID 0000.0001) // =======================================================
(PID.TID 0000.0001) // Begin MONITOR dynamic field statistics
(PID.TID 0000.0001) // =======================================================
(PID.TID 0000.0001) %MON time_tsnumber                =                   222
(PID.TID 0000.0001) %MON time_secondsf                =   7.9920000000000E+05
(PID.TID 0000.0001) %MON time_secondsi                =                799200
(PID.TID 0000.0001) %MON dynstat_eta_max              =   0.0000000000000E+00
(PID.TID 0000.0001) %MON dynstat_eta_min              =   0.0000000000000E+00
(PID.TID 0000.0001) %MON dynstat_eta_mean             =   0.0000000000000E+00
(PID.TID 0000.0001) %MON dynstat_eta_sd               =   0.0000000000000E+00
(PID.TID 0000.0001) %MON dynstat_eta_del2             =   0.0000000000000E+00
(PID.TID 0000.0001) %MON dynstat_uvel_max             =   3.8588909729170E+01
(PID.TID 0000.0001) %MON dynstat_uvel_min             =  -2.6640751857540E+01
(PID.TID 0000.0001) %MON dynstat_uvel_mean            =   1.1767582051515E+01
(PID.TID 0000.0001) %MON dynstat_uvel_sd              =   1.8925013763619E+01
(PID.TID 0000.0001) %MON dynstat_uvel_del2            =   3.3977035061841E-02
(PID.TID 0000.0001) %MON dynstat_vvel_max             =   3.8588909729170E+01
(PID.TID 0000.0001) %MON dynstat_vvel_min             =  -2.6640751857540E+01
(PID.TID 0000.0001) %MON dynstat_vvel_mean            =   1.1767582051515E+01
(PID.TID 0000.0001) %MON dynstat_vvel_sd              =   1.8925013763619E+01
(PID.TID 0000.0001) %MON dynstat_vvel_del2            =   3.3977035061841E-02
(PID.TID 0000.0001) %MON dynstat_wvel_max             =   4.8259469367879E-15
(PID.TID 0000.0001) %MON dynstat_wvel_min             =  -4.8259469367879E-15
(PID.TID 0000.0001) %MON dynstat_wvel_mean            =  -2.6408038640800E-34
(PID.TID 0000.0001) %MON dynstat_wvel_sd              =   1.3451301434752E-15
(PID.TID 0000.0001) %MON dynstat_wvel_del2            =   1.3733452540939E-15
(PID.TID 0000.0001) %MON dynstat_theta_max            =   1.8003561546361E+00
(PID.TID 0000.0001) %MON dynstat_theta_min            =   9.9981946586075E-01
(PID.TID 0000.0001) %MON dynstat_theta_mean           =   1.0066874826115E+00
(PID.TID 0000.0001) %MON dynstat_theta_sd             =   5.5846481130584E-02
(PID.TID 0000.0001) %MON dynstat_theta_del2           =   3.7510791030533E-04
(PID.TID 0000.0001) %MON dynstat_salt_max             =   1.8417717636856E+00
(PID.TID 0000.0001) %MON dynstat_salt_min             =   9.9951749599883E-01
(PID.TID 0000.0001) %MON dynstat_salt_mean            =   1.0068755991468E+00
(PID.TID 0000.0001) %MON dynstat_salt_sd              =   5.8358627664908E-02
(PID.TID 0000.0001) %MON dynstat_salt_del2            =   3.9890839116710E-04
(PID.TID 0000.0001) %MON advcfl_uvel_max              =   1.0218201555446E+00
(PID.TID 0000.0001) %MON advcfl_vvel_max              =   1.0218201555446E+00
(PID.TID 0000.0001) %MON advcfl_wvel_max              =   3.4746817944873E-16
(PID.TID 0000.0001) %MON advcfl_W_hf_max              =   0.0000000000000E+00
(PID.TID 0000.0001) %MON ke_max                       =   7.4455150023606E+02
(PID.TID 0000.0001) %MON ke_mean                      =   4.9661803126781E+02
(PID.TID 0000.0001) %MON ke_volint                    =   2.5323489810542E+22
(PID.TID 0000.0001) %MON ke_volmean                   =   4.9663214534537E+02
(PID.TID 0000.0001) // =======================================================
(PID.TID 0000.0001) // End MONITOR dynamic field statistics
(PID.TID 0000.0001) // =======================================================
(PID.TID 0000.0001) // =======================================================
(PID.TID 0000.0001) // Begin MONITOR dynamic field statistics
(PID.TID 0000.0001) // =======================================================
(PID.TID 0000.0001) %MON time_tsnumber                =                   228
(PID.TID 0000.0001) %MON time_secondsf                =   8.2080000000000E+05
(PID.TID 0000.0001) %MON time_secondsi                =                820800
(PID.TID 0000.0001) %MON dynstat_eta_max              =   0.0000000000000E+00
(PID.TID 0000.0001) %MON dynstat_eta_min              =   0.0000000000000E+00
(PID.TID 0000.0001) %MON dynstat_eta_mean             =   0.0000000000000E+00
(PID.TID 0000.0001) %MON dynstat_eta_sd               =   0.0000000000000E+00
(PID.TID 0000.0001) %MON dynstat_eta_del2             =   0.0000000000000E+00
(PID.TID 0000.0001) %MON dynstat_uvel_max             =   3.8588909729170E+01
(PID.TID 0000.0001) %MON dynstat_uvel_min             =  -2.6640751857540E+01
(PID.TID 0000.0001) %MON dynstat_uvel_mean            =   1.1767582051515E+01
(PID.TID 0000.0001) %MON dynstat_uvel_sd              =   1.8925013763619E+01
(PID.TID 0000.0001) %MON dynstat_uvel_del2            =   3.3977035061841E-02
(PID.TID 0000.0001) %MON dynstat_vvel_max             =   3.8588909729170E+01
(PID.TID 0000.0001) %MON dynstat_vvel_min             =  -2.6640751857540E+01
(PID.TID 0000.0001) %MON dynstat_vvel_mean            =   1.1767582051515E+01
(PID.TID 0000.0001) %MON dynstat_vvel_sd              =   1.8925013763619E+01
(PID.TID 0000.0001) %MON dynstat_vvel_del2            =   3.3977035061841E-02
(PID.TID 0000.0001) %MON dynstat_wvel_max             =   4.8259469367879E-15
(PID.TID 0000.0001) %MON dynstat_wvel_min             =  -4.8259469367879E-15
(PID.TID 0000.0001) %MON dynstat_wvel_mean            =  -2.6408038640800E-34
(PID.TID 0000.0001) %MON dynstat_wvel_sd              =   1.3451301434752E-15
(PID.TID 0000.0001) %MON dynstat_wvel_del2            =   1.3733452540939E-15
(PID.TID 0000.0001) %MON dynstat_theta_max            =   1.7967644683738E+00
(PID.TID 0000.0001) %MON dynstat_theta_min            =   9.9985311099932E-01
(PID.TID 0000.0001) %MON dynstat_theta_mean           =   1.0066874826115E+00
(PID.TID 0000.0001) %MON dynstat_theta_sd             =   5.5731212686500E-02
(PID.TID 0000.0001) %MON dynstat_theta_del2           =   3.7249990837931E-04
(PID.TID 0000.0001) %MON dynstat_salt_max             =   1.8373704879617E+00
(PID.TID 0000.0001) %MON dynstat_salt_min             =   9.9956717761522E-01
(PID.TID 0000.0001) %MON dynstat_salt_mean            =   1.0068755991466E+00
(PID.TID 0000.0001) %MON dynstat_salt_sd              =   5.8230101297059E-02
(PID.TID 0000.0001) %MON dynstat_salt_del2            =   3.9690632972517E-04
(PID.TID 0000.0001) %MON advcfl_uvel_max              =   1.0218201555446E+00
(PID.TID 0000.0001) %MON advcfl_vvel_max              =   1.0218201555446E+00
(PID.TID 0000.0001) %MON advcfl_wvel_max              =   3.4746817944873E-16
(PID.TID 0000.0001) %MON advcfl_W_hf_max              =   0.0000000000000E+00
(PID.TID 0000.0001) %MON ke_max                       =   7.4455150023606E+02
(PID.TID 0000.0001) %MON ke_mean                      =   4.9661803126781E+02
(PID.TID 0000.0001) %MON ke_volint                    =   2.5323489810542E+22
(PID.TID 0000.0001) %MON ke_volmean                   =   4.9663214534537E+02
(PID.TID 0000.0001) // =======================================================
(PID.TID 0000.0001) // End MONITOR dynamic field statistics
(PID.TID 0000.0001) // =======================================================
(PID.TID 0000.0001) // =======================================================
(PID.TID 0000.0001) // Begin MONITOR dynamic field statistics
(PID.TID 0000.0001) // =======================================================
(PID.TID 0000.0001) %MON time_tsnumber                =                   234
(PID.TID 0000.0001) %MON time_secondsf                =   8.4240000000000E+05
(PID.TID 0000.0001) %MON time_secondsi                =                842400
(PID.TID 0000.0001) %MON dynstat_eta_max              =   0.0000000000000E+00
(PID.TID 0000.0001) %MON dynstat_eta_min              =   0.0000000000000E+00
(PID.TID 0000.0001) %MON dynstat_eta_mean             =   0.0000000000000E+00
(PID.TID 0000.0001) %MON dynstat_eta_sd               =   0.0000000000000E+00
(PID.TID 0000.0001) %MON dynstat_eta_del2             =   0.0000000000000E+00
(PID.TID 0000.0001) %MON dynstat_uvel_max             =   3.8588909729170E+01
(PID.TID 0000.0001) %MON dynstat_uvel_min             =  -2.6640751857540E+01
(PID.TID 0000.0001) %MON dynstat_uvel_mean            =   1.1767582051515E+01
(PID.TID 0000.0001) %MON dynstat_uvel_sd              =   1.8925013763619E+01
(PID.TID 0000.0001) %MON dynstat_uvel_del2            =   3.3977035061841E-02
(PID.TID 0000.0001) %MON dynstat_vvel_max             =   3.8588909729170E+01
(PID.TID 0000.0001) %MON dynstat_vvel_min             =  -2.6640751857540E+01
(PID.TID 0000.0001) %MON dynstat_vvel_mean            =   1.1767582051515E+01
(PID.TID 0000.0001) %MON dynstat_vvel_sd              =   1.8925013763619E+01
(PID.TID 0000.0001) %MON dynstat_vvel_del2            =   3.3977035061841E-02
(PID.TID 0000.0001) %MON dynstat_wvel_max             =   4.8259469367879E-15
(PID.TID 0000.0001) %MON dynstat_wvel_min             =  -4.8259469367879E-15
(PID.TID 0000.0001) %MON dynstat_wvel_mean            =  -2.6408038640800E-34
(PID.TID 0000.0001) %MON dynstat_wvel_sd              =   1.3451301434752E-15
(PID.TID 0000.0001) %MON dynstat_wvel_del2            =   1.3733452540939E-15
(PID.TID 0000.0001) %MON dynstat_theta_max            =   1.7929810432550E+00
(PID.TID 0000.0001) %MON dynstat_theta_min            =   9.9986535721714E-01
(PID.TID 0000.0001) %MON dynstat_theta_mean           =   1.0066874826115E+00
(PID.TID 0000.0001) %MON dynstat_theta_sd             =   5.5619676069987E-02
(PID.TID 0000.0001) %MON dynstat_theta_del2           =   3.6969794920743E-04
(PID.TID 0000.0001) %MON dynstat_salt_max             =   1.8333067466871E+00
(PID.TID 0000.0001) %MON dynstat_salt_min             =   9.9958535675768E-01
(PID.TID 0000.0001) %MON dynstat_salt_mean            =   1.0068755991466E+00
(PID.TID 0000.0001) %MON dynstat_salt_sd              =   5.8099037343679E-02
(PID.TID 0000.0001) %MON dynstat_salt_del2            =   3.9523874360964E-04
(PID.TID 0000.0001) %MON advcfl_uvel_max              =   1.0218201555446E+00
(PID.TID 0000.0001) %MON advcfl_vvel_max              =   1.0218201555446E+00
(PID.TID 0000.0001) %MON advcfl_wvel_max              =   3.4746817944873E-16
(PID.TID 0000.0001) %MON advcfl_W_hf_max              =   0.0000000000000E+00
(PID.TID 0000.0001) %MON ke_max                       =   7.4455150023606E+02
(PID.TID 0000.0001) %MON ke_mean                      =   4.9661803126781E+02
(PID.TID 0000.0001) %MON ke_volint                    =   2.5323489810542E+22
(PID.TID 0000.0001) %MON ke_volmean                   =   4.9663214534537E+02
(PID.TID 0000.0001) // =======================================================
(PID.TID 0000.0001) // End MONITOR dynamic field statistics
(PID.TID 0000.0001) // =======================================================
(PID.TID 0000.0001) // =======================================================
(PID.TID 0000.0001) // Begin MONITOR dynamic field statistics
(PID.TID 0000.0001) // =======================================================
(PID.TID 0000.0001) %MON time_tsnumber                =                   240
(PID.TID 0000.0001) %MON time_secondsf                =   8.6400000000000E+05
(PID.TID 0000.0001) %MON time_secondsi                =                864000
(PID.TID 0000.0001) %MON dynstat_eta_max              =   0.0000000000000E+00
(PID.TID 0000.0001) %MON dynstat_eta_min              =   0.0000000000000E+00
(PID.TID 0000.0001) %MON dynstat_eta_mean             =   0.0000000000000E+00
(PID.TID 0000.0001) %MON dynstat_eta_sd               =   0.0000000000000E+00
(PID.TID 0000.0001) %MON dynstat_eta_del2             =   0.0000000000000E+00
(PID.TID 0000.0001) %MON dynstat_uvel_max             =   3.8588909729170E+01
(PID.TID 0000.0001) %MON dynstat_uvel_min             =  -2.6640751857540E+01
(PID.TID 0000.0001) %MON dynstat_uvel_mean            =   1.1767582051515E+01
(PID.TID 0000.0001) %MON dynstat_uvel_sd              =   1.8925013763619E+01
(PID.TID 0000.0001) %MON dynstat_uvel_del2            =   3.3977035061841E-02
(PID.TID 0000.0001) %MON dynstat_vvel_max             =   3.8588909729170E+01
(PID.TID 0000.0001) %MON dynstat_vvel_min             =  -2.6640751857540E+01
(PID.TID 0000.0001) %MON dynstat_vvel_mean            =   1.1767582051515E+01
(PID.TID 0000.0001) %MON dynstat_vvel_sd              =   1.8925013763619E+01
(PID.TID 0000.0001) %MON dynstat_vvel_del2            =   3.3977035061841E-02
(PID.TID 0000.0001) %MON dynstat_wvel_max             =   4.8259469367879E-15
(PID.TID 0000.0001) %MON dynstat_wvel_min             =  -4.8259469367879E-15
(PID.TID 0000.0001) %MON dynstat_wvel_mean            =  -2.6408038640800E-34
(PID.TID 0000.0001) %MON dynstat_wvel_sd              =   1.3451301434752E-15
(PID.TID 0000.0001) %MON dynstat_wvel_del2            =   1.3733452540939E-15
(PID.TID 0000.0001) %MON dynstat_theta_max            =   1.7905484094833E+00
(PID.TID 0000.0001) %MON dynstat_theta_min            =   9.9988162600331E-01
(PID.TID 0000.0001) %MON dynstat_theta_mean           =   1.0066874826115E+00
(PID.TID 0000.0001) %MON dynstat_theta_sd             =   5.5515853734556E-02
(PID.TID 0000.0001) %MON dynstat_theta_del2           =   3.6984841026458E-04
(PID.TID 0000.0001) %MON dynstat_salt_max             =   1.8312512951722E+00
(PID.TID 0000.0001) %MON dynstat_salt_min             =   9.9963067408627E-01
(PID.TID 0000.0001) %MON dynstat_salt_mean            =   1.0068793043461E+00
(PID.TID 0000.0001) %MON dynstat_salt_sd              =   5.7977467778240E-02
(PID.TID 0000.0001) %MON dynstat_salt_del2            =   3.9926518054206E-04
(PID.TID 0000.0001) %MON advcfl_uvel_max              =   1.0218201555446E+00
(PID.TID 0000.0001) %MON advcfl_vvel_max              =   1.0218201555446E+00
(PID.TID 0000.0001) %MON advcfl_wvel_max              =   3.4746817944873E-16
(PID.TID 0000.0001) %MON advcfl_W_hf_max              =   0.0000000000000E+00
(PID.TID 0000.0001) %MON ke_max                       =   7.4455150023606E+02
(PID.TID 0000.0001) %MON ke_mean                      =   4.9661803126781E+02
(PID.TID 0000.0001) %MON ke_volint                    =   2.5323489810542E+22
(PID.TID 0000.0001) %MON ke_volmean                   =   4.9663214534537E+02
(PID.TID 0000.0001) // =======================================================
(PID.TID 0000.0001) // End MONITOR dynamic field statistics
(PID.TID 0000.0001) // =======================================================
(PID.TID 0000.0001) // =======================================================
(PID.TID 0000.0001) // Field Current uVel   at iteration        240
(PID.TID 0000.0001) // CMIN =         -2.664075185753955E+01
(PID.TID 0000.0001) // CMAX =          3.858890972916976E+01
(PID.TID 0000.0001) // CINT =          2.415913392100345E+00
(PID.TID 0000.0001) // SYMBOLS (CMIN->CMAX): -abcdefghijklmnopqrstuvwxyz+
(PID.TID 0000.0001) //                  0.0: .
(PID.TID 0000.0001) // RANGE I (Lo:Hi:Step):(   1: 192:   1)
(PID.TID 0000.0001) // RANGE J (Lo:Hi:Step):(  32:   1:  -1)
(PID.TID 0000.0001) // RANGE K (Lo:Hi:Step):(   1:   1:   1)
(PID.TID 0000.0001) // =======================================================
(PID.TID 0000.0001) K =   1
(PID.TID 0000.0001)                I=10      I=20      I=30      I=40      I=50      I=60      I=70      I=80      I=90      I=100     I=110     I=120     I=130     I=140     I=150     I=160     I=170     I=180     I=190
(PID.TID 0000.0001) |--J--|123456789|123456789|123456789|123456789|123456789|123456789|123456789|123456789|123456789|123456789|123456789|123456789|123456789|123456789|123456789|123456789|123456789|123456789|123456789|12
(PID.TID 0000.0001)     32 xwwwwwwwwwwwwwwwwwwwwwwwwwwwwwwwxwwwwwwwwwwwwwwwwwwwwwwwwwwwwwwwea-----------------------------aeijjkkkkkkkkkkkk.kkkkkkkkkkkkllmeijjkkkkkkkkkkkk.kkkkkkkkkkkkllmquvvvvvvvvvvvvvvvvvvvvvvvvvvvvvu
(PID.TID 0000.0001)     31 xxxxwwwwwwwwwwwwwwwwwwwwwwwwwxxxxxxxwwwwwwwwwwwwwwwwwwwwwwwwwxxxecbaaaaaaaaaaaaaaaaaaaaaaaaaaabcegiijjjjkkkkkkkk.kkkkkkkkllllmmoegiijjjjkkkkkkkk.kkkkkkkkllllmmoqstuuuuuuuuuuuuuuuuuuuuuuuuuuuts
(PID.TID 0000.0001)     30 yxxxxxxxxxxxxxxxxxxxxxxxxxxxxxxxyxxxxxxxxxxxxxxxxxxxxxxxxxxxxxxxedcbbbaaaaaaaaaaaaaaaaaaaaabbbcdeghiijjjjjkkkkkk.kkkkkklllllmmnpeghiijjjjjkkkkkk.kkkkkklllllmmnpqrstttuuuuuuuuuuuuuuuuuuuuutttsr
(PID.TID 0000.0001)     29 yyyyxxxxxxxxxxxxxxxxxxxxxxxxxyyyyyyyxxxxxxxxxxxxxxxxxxxxxxxxxyyyeddccbbbbbbbbbbbbbbbbbbbbbbbccddefghiijjjjjkkkkk.kkkkklllllmmnopefghiijjjjjkkkkk.kkkkklllllmmnopqrssstttttttttttttttttttttttsssr
(PID.TID 0000.0001)     28 yyyyyyyyyyyxxxxxxxxxxxyyyyyyyyyyyyyyyyyyyyyxxxxxxxxxxxyyyyyyyyyyfeddccccccbbbbbbbbbbbbbccccccddeffghiiijjjjjkkkk.kkkklllllmmnnopffghiiijjjjjkkkk.kkkklllllmmnnoppqrrssssstttttttttttttttsssssrrq
(PID.TID 0000.0001)     27 yyyyyyyyyyyyyyyyyyyyyyyyyyyyyyyyyyyyyyyyyyyyyyyyyyyyyyyyyyyyyyyyfeeddddcccccccccccccccccccddddeefgghhiijjjjjkkkk.kkkklllllmmnnoofgghhiijjjjjkkkk.kkkklllllmmnnoopqqrrrsssssssssssssssssssssrrrqq
(PID.TID 0000.0001)     26 zzzzyyyyyyyyyyyyyyyyyyyyyyyyyzzzzzzzyyyyyyyyyyyyyyyyyyyyyyyyyzzzffeeedddddddddddddddddddddddeeeffgghhiijjjjjkkkk.kkklllllmmmnnoofgghhiijjjjjkkkk.kkklllllmmmnnooppqqqrrrrrrrrrrrrrrrrrrrrrrrqqqp
(PID.TID 0000.0001)     25 zzzzzzzzzzzzzzzzzzzzzzzzzzzzzzzzzzzzzzzzzzzzzzzzzzzzzzzzzzzzzzzzgfffeeeeeeeedddddddddeeeeeeeefffgghhiiijjjjjkkkk.kkklllllmmmnnnogghhiiijjjjjkkkk.kkklllllmmmnnnoopppqqqqqqrrrrrrrrrrrrrqqqqqqppp
(PID.TID 0000.0001)     24 zzzzzzzzzzzzzzzzzzzzzzzzzzzzzzzzzzzzzzzzzzzzzzzzzzzzzzzzzzzzzzzzgggfffffeeeeeeeeeeeeeeeeefffffggghhhiiijjjjjkkkk.kkkllllllmmmnnnghhhiiijjjjjkkkk.kkkllllllmmmnnnoopppppqqqqqqqqqqqqqqqqqqqpppppo
(PID.TID 0000.0001)     23 zzzzzzzzzzzzzzzzzzzzzzzzzzzzzzzzzzzzzzzzzzzzzzzzzzzzzzzzzzzzzzzzhggggfffffffffffffffffffffffgggghhhiiiijjjjjkkkk.kkkklllllmmmmnnhhhiiiijjjjjkkkk.kkkklllllmmmmnnnoooopppppppppppppppppppppppoooo
(PID.TID 0000.0001)     22 zzzzzzzzzzzzzzzzzzzzzzzzzzzzzzzzzzzzzzzzzzzzzzzzzzzzzzzzzzzzzzzzhhhhggggggggggggggggggggggggghhhhhiiiijjjjjjkkkk.kkkkllllllmmmmnhhiiiijjjjjjkkkk.kkkkllllllmmmmnnnnooooooooooooooooooooooooooonn
(PID.TID 0000.0001)     21 ++++++++++++++++++++++++++++++++++++++++++++++++++++++++++++++++ihhhhhhhhhhggggggggggghhhhhhhhhhiiiiijjjjjjkkkkk.kkkkkllllllmmmmiiiiijjjjjjkkkkk.kkkkkllllllmmmmmnnnnnnnnnooooooooooooonnnnnnnnn
(PID.TID 0000.0001)     20 ++++++++++++++++++++++++++++++++++++++++++++++++++++++++++++++++iiiiiihhhhhhhhhhhhhhhhhhhhhiiiiiiiijjjjjjjkkkkkk.kkkkkklllllllmmiiijjjjjjjkkkkkk.kkkkkklllllllmmmmmmmmnnnnnnnnnnnnnnnnnnnnnmmmmm
(PID.TID 0000.0001)     19 ++++++++++++++++++++++++++++++++++++++++++++++++++++++++++++++++jjiiiiiiiiiiiiiiiiiiiiiiiiiiiiijjjjjjjjjkkkkkkkk.kkkkkkklllllllljjjjjjjjkkkkkkkk.kkkkkkkllllllllllmmmmmmmmmmmmmmmmmmmmmmmmmmmmml
(PID.TID 0000.0001)     18 ++++++++++++++++++++++++++++++++++++++++++++++++++++++++++++++++jjjjjjjjjjjjjjjjjjjjjjjjjjjjjjjjjjjjjkkkkkkkkkkk.kkkkkkkkkkklllljjjjjkkkkkkkkkkk.kkkkkkkkkkkllllllllllllllllllllllllllllllllllll
(PID.TID 0000.0001)     17 ++++++++++++++++++++++++++++++++++++++++++++++++++++++++++++++++kkkkkkkkkkkkkkkkkkkkkkkkkkkkkkkkkkkkkkkkkkkkkkkk.kkkkkkkkkkkkkkkkkkkkkkkkkkkkkkk.kkkkkkkkkkkkkkkkkkkkkkkkkkkkkkkkkkkkkkkkkkkkkkk
(PID.TID 0000.0001)     16 ++++++++++++++++++++++++++++++++++++++++++++++++++++++++++++++++kkkkkkkkkkkkkkkkkkkkkkkkkkkkkkkkkkkkkkkkkkkkkkkk.kkkkkkkkkkkkkkkkkkkkkkkkkkkkkkk.kkkkkkkkkkkkkkkkkkkkkkkkkkkkkkkkkkkkkkkkkkkkkkk
(PID.TID 0000.0001)     15 ++++++++++++++++++++++++++++++++++++++++++++++++++++++++++++++++lllllllllllllllllllllllllllllllllllllkkkkkkkkkkk.kkkkkkkkkkkjjjjlllllkkkkkkkkkkk.kkkkkkkkkkkjjjjjjjjjjjjjjjjjjjjjjjjjjjjjjjjjjjj
(PID.TID 0000.0001)     14 ++++++++++++++++++++++++++++++++++++++++++++++++++++++++++++++++llmmmmmmmmmmmmmmmmmmmmmmmmmmmmmllllllllllkkkkkkk.kkkkkkkkjjjjjjjlllllllllkkkkkkk.kkkkkkkkjjjjjjjjjiiiiiiiiiiiiiiiiiiiiiiiiiiiiij
(PID.TID 0000.0001)     13 ++++++++++++++++++++++++++++++++++++++++++++++++++++++++++++++++mmmmmmnnnnnnnnnnnnnnnnnnnnnmmmmmmmmlllllllkkkkkk.kkkkkkjjjjjjjiimmmlllllllkkkkkk.kkkkkkjjjjjjjiiiiiiiihhhhhhhhhhhhhhhhhhhhhiiiii
(PID.TID 0000.0001)     12 ++++++++++++++++++++++++++++++++++++++++++++++++++++++++++++++++mnnnnnnnnnooooooooooooonnnnnnnnnmmmmmllllllkkkkk.kkkkkjjjjjjiiiimmmmmllllllkkkkk.kkkkkjjjjjjiiiiihhhhhhhhhhggggggggggghhhhhhhhhh
(PID.TID 0000.0001)     11 zzzzzzzzzzzzzzzzzzzzzzzzzzzzzzzzzzzzzzzzzzzzzzzzzzzzzzzzzzzzzzzznnnooooooooooooooooooooooooooonnnnmmmmllllllkkkk.kkkkjjjjjjiiiihnnmmmmllllllkkkk.kkkkjjjjjjiiiihhhhhggggggggggggggggggggggggghhh
(PID.TID 0000.0001)     10 zzzzzzzzzzzzzzzzzzzzzzzzzzzzzzzzzzzzzzzzzzzzzzzzzzzzzzzzzzzzzzzznoooopppppppppppppppppppppppoooonnnmmmmlllllkkkk.kkkkjjjjjiiiihhnnnmmmmlllllkkkk.kkkkjjjjjiiiihhhggggfffffffffffffffffffffffgggg
(PID.TID 0000.0001)      9 zzzzzzzzzzzzzzzzzzzzzzzzzzzzzzzzzzzzzzzzzzzzzzzzzzzzzzzzzzzzzzzzoopppppqqqqqqqqqqqqqqqqqqqpppppoonnnmmmllllllkkk.kkkkjjjjjiiihhhonnnmmmllllllkkk.kkkkjjjjjiiihhhgggfffffeeeeeeeeeeeeeeeeefffffgg
(PID.TID 0000.0001)      8 zzzzzzzzzzzzzzzzzzzzzzzzzzzzzzzzzzzzzzzzzzzzzzzzzzzzzzzzzzzzzzzzopppqqqqqqrrrrrrrrrrrrrqqqqqqpppoonnnmmmlllllkkk.kkkkjjjjjiiihhgoonnnmmmlllllkkk.kkkkjjjjjiiihhggfffeeeeeeeedddddddddeeeeeeeefff
(PID.TID 0000.0001)      7 zzzzyyyyyyyyyyyyyyyyyyyyyyyyyzzzzzzzyyyyyyyyyyyyyyyyyyyyyyyyyzzzppqqqrrrrrrrrrrrrrrrrrrrrrrrqqqppoonnmmmlllllkkk.kkkkjjjjjiihhggpoonnmmmlllllkkk.kkkkjjjjjiihhggffeeedddddddddddddddddddddddeeef
(PID.TID 0000.0001)      6 yyyyyyyyyyyyyyyyyyyyyyyyyyyyyyyyyyyyyyyyyyyyyyyyyyyyyyyyyyyyyyyypqqrrrsssssssssssssssssssssrrrqqpoonnmmlllllkkkk.kkkkjjjjjiihhggpoonnmmlllllkkkk.kkkkjjjjjiihhggfeeddddcccccccccccccccccccddddee
(PID.TID 0000.0001)      5 yyyyyyyyyyyxxxxxxxxxxxyyyyyyyyyyyyyyyyyyyyyxxxxxxxxxxxyyyyyyyyyypqrrssssstttttttttttttttsssssrrqpponnmmlllllkkkk.kkkkjjjjjiiihgfpponnmmlllllkkkk.kkkkjjjjjiiihgffeddccccccbbbbbbbbbbbbbccccccdde
(PID.TID 0000.0001)      4 yyyyxxxxxxxxxxxxxxxxxxxxxxxxxyyyyyyyxxxxxxxxxxxxxxxxxxxxxxxxxyyyqrssstttttttttttttttttttttttsssrqponmmlllllkkkkk.kkkkkjjjjjiihgfqponmmlllllkkkkk.kkkkkjjjjjiihgfeddccbbbbbbbbbbbbbbbbbbbbbbbccdd
(PID.TID 0000.0001)      3 yxxxxxxxxxxxxxxxxxxxxxxxxxxxxxxxyxxxxxxxxxxxxxxxxxxxxxxxxxxxxxxxqrstttuuuuuuuuuuuuuuuuuuuuutttsrqpnmmlllllkkkkkk.kkkkkkjjjjjiihgqpnmmlllllkkkkkk.kkkkkkjjjjjiihgedcbbbaaaaaaaaaaaaaaaaaaaaabbbcd
(PID.TID 0000.0001)      2 xxxxwwwwwwwwwwwwwwwwwwwwwwwwwxxxxxxxwwwwwwwwwwwwwwwwwwwwwwwwwxxxqstuuuuuuuuuuuuuuuuuuuuuuuuuuutsqommllllkkkkkkkk.kkkkkkkkjjjjiigqommllllkkkkkkkk.kkkkkkkkjjjjiigecbaaaaaaaaaaaaaaaaaaaaaaaaaaabc
(PID.TID 0000.0001)      1 xwwwwwwwwwwwwwwwwwwwwwwwwwwwwwwwxwwwwwwwwwwwwwwwwwwwwwwwwwwwwwwwquvvvvvvvvvvvvvvvvvvvvvvvvvvvvvuqmllkkkkkkkkkkkk.kkkkkkkkkkkkjjiqmllkkkkkkkkkkkk.kkkkkkkkkkkkjjiea-----------------------------a
(PID.TID 0000.0001) // =======================================================
(PID.TID 0000.0001) // END OF FIELD                                          =
(PID.TID 0000.0001) // =======================================================
(PID.TID 0000.0001) 
(PID.TID 0000.0001) // =======================================================
(PID.TID 0000.0001) // Field Current vVel   at iteration        240
(PID.TID 0000.0001) // CMIN =         -2.664075185753955E+01
(PID.TID 0000.0001) // CMAX =          3.858890972916976E+01
(PID.TID 0000.0001) // CINT =          2.415913392100345E+00
(PID.TID 0000.0001) // SYMBOLS (CMIN->CMAX): -abcdefghijklmnopqrstuvwxyz+
(PID.TID 0000.0001) //                  0.0: .
(PID.TID 0000.0001) // RANGE I (Lo:Hi:Step):(   1: 192:   1)
(PID.TID 0000.0001) // RANGE J (Lo:Hi:Step):(  32:   1:  -1)
(PID.TID 0000.0001) // RANGE K (Lo:Hi:Step):(   1:   1:   1)
(PID.TID 0000.0001) // =======================================================
(PID.TID 0000.0001) K =   1
(PID.TID 0000.0001)                I=10      I=20      I=30      I=40      I=50      I=60      I=70      I=80      I=90      I=100     I=110     I=120     I=130     I=140     I=150     I=160     I=170     I=180     I=190
(PID.TID 0000.0001) |--J--|123456789|123456789|123456789|123456789|123456789|123456789|123456789|123456789|123456789|123456789|123456789|123456789|123456789|123456789|123456789|123456789|123456789|123456789|123456789|12
(PID.TID 0000.0001)     32 iggffggghhhiijjkkllmmnnnooopppomiggffggghhhiijjkkllmmnnnooopppomacddeeffgghhijjkkllmnnooppqqrrsuwxxyyyzzzzz++++++++++zzzzzyyyxxwwxxyyyzzzzz++++++++++zzzzzyyyxxwusrrqqppoonnmllkkjjihhggffeeddca
(PID.TID 0000.0001)     31 jihgggghhhiiijjkkllmmmnnnoooonmljihgggghhhiiijjkkllmmmnnnoooonml-bcddeefgghhiijkklmmnnoppqqrsstvwxxyyyzzzzz++++++++++zzzzzyyyxxwwxxyyyzzzzz++++++++++zzzzzyyyxxwvtssrqqpponnmmlkkjiihhggfeeddcb-
(PID.TID 0000.0001)     30 jiihhhhhhiiijjjkklllmmmnnnnnnmmljiihhhhhhiiijjjkklllmmmnnnnnnmml-abcddeffghhiijkklmmnooppqrrstuvwxxyyyzzzzz++++++++++zzzzzyyyxxwwxxyyyzzzzz++++++++++zzzzzyyyxxwvutsrrqppoonmmlkkjiihhgffeddcba-
(PID.TID 0000.0001)     29 kjiiihhiiiiijjjkklllmmmmnnnnmmlkkjiiihhiiiiijjjkklllmmmmnnnnmmlk-abccdeefgghiijkklmmnoopqqrsstuvwwxxyyyzzzz++++++++++zzzzyyyxxwwwwxxyyyzzzz++++++++++zzzzyyyxxwwvutssrqqpoonmmlkkjiihggfeedccba-
(PID.TID 0000.0001)     28 kjjiiiiiiiijjjkkkklllmmmmmmmmllkkjjiiiiiiiijjjkkkklllmmmmmmmmllk-abbcddeffghiijkklmmnoppqrrsttuvwwxxyyyzzzz++++++++++zzzzyyyxxwwwwxxyyyzzzz++++++++++zzzzyyyxxwwvuttsrrqpponmmlkkjiihgffeddcbba-
(PID.TID 0000.0001)     27 kjjjiiiiiijjjjkkkkllllmmmmmmlllkkjjjiiiiiijjjjkkkkllllmmmmmmlllk-aabcddeffghhijkklmnnoppqrsstuuvwwxxyyyzzzz++++++++++zzzzyyyxxwwwwxxyyyzzzz++++++++++zzzzyyyxxwwvuutssrqpponnmlkkjihhgffeddcbaa-
(PID.TID 0000.0001)     26 kjjjjjjjjjjjjjkkkkllllllmmlllllkkjjjjjjjjjjjjjkkkkllllllmmlllllk-aabccdeffghhijkklmnnopqqrsstuuvwwxxyyyzzzz++++++++++zzzzyyyxxwwwwxxyyyzzzz++++++++++zzzzyyyxxwwvuutssrqqponnmlkkjihhgffedccbaa-
(PID.TID 0000.0001)     25 kkjjjjjjjjjjjkkkkkllllllllllllkkkkjjjjjjjjjjjkkkkkllllllllllllkk-aabccdeefghhijkklmnnopqqrsstuuvwwxxyyyzzzz++++++++++zzzzyyyxxwwwwxxyyyzzzz++++++++++zzzzyyyxxwwvuutssrqqponnmlkkjihhgfeedccbaa-
(PID.TID 0000.0001)     24 kkjjjjjjjjjjjkkkkkklllllllllllkkkkjjjjjjjjjjjkkkkkklllllllllllkk-aabccdeefghhijkklmnnopqqrsttuuvwwxxyyyzzzz++++++++++zzzzyyyxxwwwwxxyyyzzzz++++++++++zzzzyyyxxwwvuuttsrqqponnmlkkjihhgfeedccbaa-
(PID.TID 0000.0001)     23 kkkjjjjjjjjjkkkkkkkklllllllllkkkkkkjjjjjjjjjkkkkkkkklllllllllkkk-aabbcdeefghhijkklmnoopqrrsttuuvwwxxyyyzzzz++++++++++zzzzyyyxxwwwwxxyyyzzzz++++++++++zzzzyyyxxwwvuuttsrrqpoonmlkkjihhgfeedcbbaa-
(PID.TID 0000.0001)     22 kkkkjjjjjjjkkkkkkkkkklllllllkkkkkkkkjjjjjjjkkkkkkkkkklllllllkkkk-aabbcdeefgghijkklmnoopqrrsttuuvwwxxxyyzzzz++++++++++zzzzyyxxxwwwwxxxyyzzzz++++++++++zzzzyyxxxwwvuuttsrrqpoonmlkkjihggfeedcbbaa-
(PID.TID 0000.0001)     21 kkkkkkkkkkkkkkkkkkkkkkklllkkkkkkkkkkkkkkkkkkkkkkkkkkkkklllkkkkkk-aabbcddefgghijkklmnoopqrrsttuuvwwxxxyyzzzz++++++++++zzzzyyxxxwwwwxxxyyzzzz++++++++++zzzzyyxxxwwvuuttsrrqpoonmlkkjihggfeddcbbaa-
(PID.TID 0000.0001)     20 kkkkkkkkkkkkkkkkkkkkkkkkkkkkkkkkkkkkkkkkkkkkkkkkkkkkkkkkkkkkkkkk-aabbcddefgghijkklmnoopqrrsttuuvwwxxxyyzzzz++++++++++zzzzyyxxxwwwwxxxyyzzzz++++++++++zzzzyyxxxwwvuuttsrrqpoonmlkkjihggfeddcbbaa-
(PID.TID 0000.0001)     19 kkkkkkkkkkkkkkkkkkkkkkkkkkkkkkkkkkkkkkkkkkkkkkkkkkkkkkkkkkkkkkkk-aabbcddefgghijkklmnoopqrrsttuuvwwxxxyyzzzz++++++++++zzzzyyxxxwwwwxxxyyzzzz++++++++++zzzzyyxxxwwvuuttsrrqpoonmlkkjihggfeddcbbaa-
(PID.TID 0000.0001)     18 kkkkkkkkkkkkkkkkkkkkkkkkkkkkkkkkkkkkkkkkkkkkkkkkkkkkkkkkkkkkkkkk-aabbcddefgghijkklmnoopqrrsttuuvwwxxxyyzzzz++++++++++zzzzyyxxxwwwwxxxyyzzzz++++++++++zzzzyyxxxwwvuuttsrrqpoonmlkkjihggfeddcbbaa-
(PID.TID 0000.0001)     17 ................................................................-aabbcddefgghijkklmnoopqrrsttuuvwwxxxyyzzzz++++++++++zzzzyyxxxwwwwxxxyyzzzz++++++++++zzzzyyxxxwwvuuttsrrqpoonmlkkjihggfeddcbbaa-
(PID.TID 0000.0001)     16 kkkkkkkkkkkkkkkkkkkkkkkkkkkkkkkkkkkkkkkkkkkkkkkkkkkkkkkkkkkkkkkk-aabbcddefgghijkklmnoopqrrsttuuvwwxxxyyzzzz++++++++++zzzzyyxxxwwwwxxxyyzzzz++++++++++zzzzyyxxxwwvuuttsrrqpoonmlkkjihggfeddcbbaa-
(PID.TID 0000.0001)     15 kkkkkkkkkkkkkkkkkkkkkkkkkkkkkkkkkkkkkkkkkkkkkkkkkkkkkkkkkkkkkkkk-aabbcddefgghijkklmnoopqrrsttuuvwwxxxyyzzzz++++++++++zzzzyyxxxwwwwxxxyyzzzz++++++++++zzzzyyxxxwwvuuttsrrqpoonmlkkjihggfeddcbbaa-
(PID.TID 0000.0001)     14 kkkkkkkkkkkkkkkkkkkkkkkkkkkkkkkkkkkkkkkkkkkkkkkkkkkkkkkkkkkkkkkk-aabbcddefgghijkklmnoopqrrsttuuvwwxxxyyzzzz++++++++++zzzzyyxxxwwwwxxxyyzzzz++++++++++zzzzyyxxxwwvuuttsrrqpoonmlkkjihggfeddcbbaa-
(PID.TID 0000.0001)     13 kkkkkklllkkkkkkkkkkkkkkkkkkkkkkkkkkkkklllkkkkkkkkkkkkkkkkkkkkkkk-aabbcddefgghijkklmnoopqrrsttuuvwwxxxyyzzzz++++++++++zzzzyyxxxwwwwxxxyyzzzz++++++++++zzzzyyxxxwwvuuttsrrqpoonmlkkjihggfeddcbbaa-
(PID.TID 0000.0001)     12 kkkklllllllkkkkkkkkkkjjjjjjjkkkkkkkklllllllkkkkkkkkkkjjjjjjjkkkk-aabbcdeefgghijkklmnoopqrrsttuuvwwxxxyyzzzz++++++++++zzzzyyxxxwwwwxxxyyzzzz++++++++++zzzzyyxxxwwvuuttsrrqpoonmlkkjihggfeedcbbaa-
(PID.TID 0000.0001)     11 kkklllllllllkkkkkkkkjjjjjjjjjkkkkkklllllllllkkkkkkkkjjjjjjjjjkkk-aabbcdeefghhijkklmnoopqrrsttuuvwwxxyyyzzzz++++++++++zzzzyyyxxwwwwxxyyyzzzz++++++++++zzzzyyyxxwwvuuttsrrqpoonmlkkjihhgfeedcbbaa-
(PID.TID 0000.0001)     10 kklllllllllllkkkkkkjjjjjjjjjjjkkkklllllllllllkkkkkkjjjjjjjjjjjkk-aabccdeefghhijkklmnnopqqrsttuuvwwxxyyyzzzz++++++++++zzzzyyyxxwwwwxxyyyzzzz++++++++++zzzzyyyxxwwvuuttsrqqponnmlkkjihhgfeedccbaa-
(PID.TID 0000.0001)      9 kkllllllllllllkkkkkjjjjjjjjjjjkkkkllllllllllllkkkkkjjjjjjjjjjjkk-aabccdeefghhijkklmnnopqqrsstuuvwwxxyyyzzzz++++++++++zzzzyyyxxwwwwxxyyyzzzz++++++++++zzzzyyyxxwwvuutssrqqponnmlkkjihhgfeedccbaa-
(PID.TID 0000.0001)      8 klllllmmllllllkkkkjjjjjjjjjjjjjkklllllmmllllllkkkkjjjjjjjjjjjjjk-aabccdeffghhijkklmnnopqqrsstuuvwwxxyyyzzzz++++++++++zzzzyyyxxwwwwxxyyyzzzz++++++++++zzzzyyyxxwwvuutssrqqponnmlkkjihhgffedccbaa-
(PID.TID 0000.0001)      7 klllmmmmmmllllkkkkjjjjiiiiiijjjkklllmmmmmmllllkkkkjjjjiiiiiijjjk-aabcddeffghhijkklmnnoppqrsstuuvwwxxyyyzzzz++++++++++zzzzyyyxxwwwwxxyyyzzzz++++++++++zzzzyyyxxwwvuutssrqpponnmlkkjihhgffeddcbaa-
(PID.TID 0000.0001)      6 kllmmmmmmmmlllkkkkjjjiiiiiiiijjkkllmmmmmmmmlllkkkkjjjiiiiiiiijjk-abbcddeffghiijkklmmnoppqrrsttuvwwxxyyyzzzz++++++++++zzzzyyyxxwwwwxxyyyzzzz++++++++++zzzzyyyxxwwvuttsrrqpponmmlkkjiihgffeddcbba-
(PID.TID 0000.0001)      5 klmmnnnnmmmmlllkkjjjiiiiihhiiijkklmmnnnnmmmmlllkkjjjiiiiihhiiijk-abccdeefgghiijkklmmnoopqqrsstuvwwxxyyyzzzz++++++++++zzzzyyyxxwwwwxxyyyzzzz++++++++++zzzzyyyxxwwvutssrqqpoonmmlkkjiihggfeedccba-
(PID.TID 0000.0001)      4 lmmnnnnnnmmmlllkkjjjiiihhhhhhiijlmmnnnnnnmmmlllkkjjjiiihhhhhhiij-abcddeffghhiijkklmmnooppqrrstuvwxxyyyzzzzz++++++++++zzzzzyyyxxwwxxyyyzzzzz++++++++++zzzzzyyyxxwvutsrrqppoonmmlkkjiihhgffeddcba-
(PID.TID 0000.0001)      3 lmnoooonnnmmmllkkjjiiihhhgggghijlmnoooonnnmmmllkkjjiiihhhgggghij-bcddeefgghhiijkklmmnnoppqqrsstvwxxyyyzzzzz++++++++++zzzzzyyyxxwwxxyyyzzzzz++++++++++zzzzzyyyxxwvtssrqqpponnmmlkkjiihhggfeeddcb-
(PID.TID 0000.0001)      2 mopppooonnnmmllkkjjiihhhgggffggimopppooonnnmmllkkjjiihhhgggffggiacddeeffgghhijjkkllmnnooppqqrrsuwxxyyyzzzzz++++++++++zzzzzyyyxxwwxxyyyzzzzz++++++++++zzzzzyyyxxwusrrqqppoonnmllkkjjihhggffeeddca
(PID.TID 0000.0001)      1 qqqqpppoonnmmllkkjjiihhggfffeeeeqqqqpppoonnmmllkkjjiihhggfffeeeeeeeefffgghhiijjkkllmmnnoopppqqqqxxyyyyzzzzz++++++++++zzzzzyyyyxxxxyyyyzzzzz++++++++++zzzzzyyyyxxqqqqpppoonnmmllkkjjiihhggfffeeee
(PID.TID 0000.0001) // =======================================================
(PID.TID 0000.0001) // END OF FIELD                                          =
(PID.TID 0000.0001) // =======================================================
(PID.TID 0000.0001) 
(PID.TID 0000.0001) // =======================================================
(PID.TID 0000.0001) // Field Current theta  at iteration        240
(PID.TID 0000.0001) // CMIN =          9.998816260033074E-01
(PID.TID 0000.0001) // CMAX =          1.790548409483262E+00
(PID.TID 0000.0001) // CINT =          2.928395494370202E-02
(PID.TID 0000.0001) // SYMBOLS (CMIN->CMAX): -abcdefghijklmnopqrstuvwxyz+
(PID.TID 0000.0001) //                  0.0: .
(PID.TID 0000.0001) // RANGE I (Lo:Hi:Step):(   1: 192:   1)
(PID.TID 0000.0001) // RANGE J (Lo:Hi:Step):(  32:   1:  -1)
(PID.TID 0000.0001) // RANGE K (Lo:Hi:Step):(   1:   1:   1)
(PID.TID 0000.0001) // =======================================================
(PID.TID 0000.0001) K =   1
(PID.TID 0000.0001)                I=10      I=20      I=30      I=40      I=50      I=60      I=70      I=80      I=90      I=100     I=110     I=120     I=130     I=140     I=150     I=160     I=170     I=180     I=190
(PID.TID 0000.0001) |--J--|123456789|123456789|123456789|123456789|123456789|123456789|123456789|123456789|123456789|123456789|123456789|123456789|123456789|123456789|123456789|123456789|123456789|123456789|123456789|12
(PID.TID 0000.0001)     32 ------------------------------------------------------------------------------------------------------------------------------------------------------------------------------------------------
(PID.TID 0000.0001)     31 ------------------------------------------------------------------------------------------------------------------------------------------------------------------------------------------------
(PID.TID 0000.0001)     30 ------------------------------------------------------------------------------------------------------------------------------------------------------------------------------------------------
(PID.TID 0000.0001)     29 ------------------------------------------------------------------------------------------------------------------------------------------------------------------------------------------------
(PID.TID 0000.0001)     28 ------------------------------------------------------------------------------------------------------------------------------------------------------------------------------------------------
(PID.TID 0000.0001)     27 ------------------------------------------------------------------------------------------------------------------------------------------------------------------------------------------------
(PID.TID 0000.0001)     26 ------------------------------------------------------------------------------------------------------------------------------------------------------------------------------------------------
(PID.TID 0000.0001)     25 ------------------------------------------------------------------------------------------------------------------------------------------------------------------------------------------------
(PID.TID 0000.0001)     24 ------------------------------------------------------------------------------------------------------------------------------------------------------------------------------------------------
(PID.TID 0000.0001)     23 ------------------------------------------------------------------------------------------------------------------------------------------------------------------------------------------------
(PID.TID 0000.0001)     22 -------------------------aaaaa------------------------------------------------------------------------------------------------------------------------------------------------------------------
(PID.TID 0000.0001)     21 ---------------------aabcddddcba----------------------------------------------------------------------------------------------------------------------------------------------------------------
(PID.TID 0000.0001)     20 ---------------------bdfhjjjigdba---------------------------------------------------------------------------------------------------------------------------------------------------------------
(PID.TID 0000.0001)     19 --------------------adgkoqqqolhdb---------------------------------------------------------------------------------------------------------------------------------------------------------------
(PID.TID 0000.0001)     18 --------------------bejptwxwtpkfb---------------------------------------------------------------------------------------------------------------------------------------------------------------
(PID.TID 0000.0001)     17 --------------------bflrwz+zwrlgc---------------------------------------------------------------------------------------------------------------------------------------------------------------
(PID.TID 0000.0001)     16 --------------------bflrwz+zwrlgc---------------------------------------------------------------------------------------------------------------------------------------------------------------
(PID.TID 0000.0001)     15 --------------------bejptwxwtpkfb---------------------------------------------------------------------------------------------------------------------------------------------------------------
(PID.TID 0000.0001)     14 --------------------adgkoqqqolhdb---------------------------------------------------------------------------------------------------------------------------------------------------------------
(PID.TID 0000.0001)     13 ---------------------bdfhjjjigdba---------------------------------------------------------------------------------------------------------------------------------------------------------------
(PID.TID 0000.0001)     12 ---------------------aabcddddcba----------------------------------------------------------------------------------------------------------------------------------------------------------------
(PID.TID 0000.0001)     11 -------------------------aaaaa------------------------------------------------------------------------------------------------------------------------------------------------------------------
(PID.TID 0000.0001)     10 ------------------------------------------------------------------------------------------------------------------------------------------------------------------------------------------------
(PID.TID 0000.0001)      9 ------------------------------------------------------------------------------------------------------------------------------------------------------------------------------------------------
(PID.TID 0000.0001)      8 ------------------------------------------------------------------------------------------------------------------------------------------------------------------------------------------------
(PID.TID 0000.0001)      7 ------------------------------------------------------------------------------------------------------------------------------------------------------------------------------------------------
(PID.TID 0000.0001)      6 ------------------------------------------------------------------------------------------------------------------------------------------------------------------------------------------------
(PID.TID 0000.0001)      5 ------------------------------------------------------------------------------------------------------------------------------------------------------------------------------------------------
(PID.TID 0000.0001)      4 ------------------------------------------------------------------------------------------------------------------------------------------------------------------------------------------------
(PID.TID 0000.0001)      3 ------------------------------------------------------------------------------------------------------------------------------------------------------------------------------------------------
(PID.TID 0000.0001)      2 ------------------------------------------------------------------------------------------------------------------------------------------------------------------------------------------------
(PID.TID 0000.0001)      1 ------------------------------------------------------------------------------------------------------------------------------------------------------------------------------------------------
(PID.TID 0000.0001) // =======================================================
(PID.TID 0000.0001) // END OF FIELD                                          =
(PID.TID 0000.0001) // =======================================================
(PID.TID 0000.0001) 
(PID.TID 0000.0001) // =======================================================
(PID.TID 0000.0001) // Field Current etaN   at iteration        240
(PID.TID 0000.0001) // CMIN =          1.000000000000000E+32
(PID.TID 0000.0001) // CMAX =         -1.000000000000000E+32
(PID.TID 0000.0001) // CINT =          0.000000000000000E+00
(PID.TID 0000.0001) // SYMBOLS (CMIN->CMAX): -abcdefghijklmnopqrstuvwxyz+
(PID.TID 0000.0001) //                  0.0: .
(PID.TID 0000.0001) // RANGE I (Lo:Hi:Step):(  -2: 195:   1)
(PID.TID 0000.0001) // RANGE J (Lo:Hi:Step):(  35:  -2:  -1)
(PID.TID 0000.0001) // RANGE K (Lo:Hi:Step):(   1:   1:   1)
(PID.TID 0000.0001) // =======================================================
(PID.TID 0000.0001) K =   1
(PID.TID 0000.0001)                I=7       I=17      I=27      I=31      I=41      I=51      I=61      I=65      I=75      I=85      I=95      I=99      I=109     I=119     I=129     I=133     I=143     I=153     I=163     I=167     I=177     I=187
(PID.TID 0000.0001) |--J--|**0123456|890123456|890123456|890123450|234567890|234567890|234567890|234567234|678901234|678901234|678901234|678945678|012345678|012345678|012345678|016789012|456789012|456789012|456789012|890123456|890123456|890123456|89012345
(PID.TID 0000.0001)     35 ....................................................................................................................................................................................................................................
(PID.TID 0000.0001)     34 ....................................................................................................................................................................................................................................
(PID.TID 0000.0001)     33 ....................................................................................................................................................................................................................................
(PID.TID 0000.0001)     32 ....................................................................................................................................................................................................................................
(PID.TID 0000.0001)     31 ....................................................................................................................................................................................................................................
(PID.TID 0000.0001)     30 ....................................................................................................................................................................................................................................
(PID.TID 0000.0001)     29 ....................................................................................................................................................................................................................................
(PID.TID 0000.0001)     28 ....................................................................................................................................................................................................................................
(PID.TID 0000.0001)     27 ....................................................................................................................................................................................................................................
(PID.TID 0000.0001)     26 ....................................................................................................................................................................................................................................
(PID.TID 0000.0001)     25 ....................................................................................................................................................................................................................................
(PID.TID 0000.0001)     24 ....................................................................................................................................................................................................................................
(PID.TID 0000.0001)     23 ....................................................................................................................................................................................................................................
(PID.TID 0000.0001)     22 ....................................................................................................................................................................................................................................
(PID.TID 0000.0001)     21 ....................................................................................................................................................................................................................................
(PID.TID 0000.0001)     20 ....................................................................................................................................................................................................................................
(PID.TID 0000.0001)     19 ....................................................................................................................................................................................................................................
(PID.TID 0000.0001)     18 ....................................................................................................................................................................................................................................
(PID.TID 0000.0001)     17 ....................................................................................................................................................................................................................................
(PID.TID 0000.0001)     16 ....................................................................................................................................................................................................................................
(PID.TID 0000.0001)     15 ....................................................................................................................................................................................................................................
(PID.TID 0000.0001)     14 ....................................................................................................................................................................................................................................
(PID.TID 0000.0001)     13 ....................................................................................................................................................................................................................................
(PID.TID 0000.0001)     12 ....................................................................................................................................................................................................................................
(PID.TID 0000.0001)     11 ....................................................................................................................................................................................................................................
(PID.TID 0000.0001)     10 ....................................................................................................................................................................................................................................
(PID.TID 0000.0001)      9 ....................................................................................................................................................................................................................................
(PID.TID 0000.0001)      8 ....................................................................................................................................................................................................................................
(PID.TID 0000.0001)      7 ....................................................................................................................................................................................................................................
(PID.TID 0000.0001)      6 ....................................................................................................................................................................................................................................
(PID.TID 0000.0001)      5 ....................................................................................................................................................................................................................................
(PID.TID 0000.0001)      4 ....................................................................................................................................................................................................................................
(PID.TID 0000.0001)      3 ....................................................................................................................................................................................................................................
(PID.TID 0000.0001)      2 ....................................................................................................................................................................................................................................
(PID.TID 0000.0001)      1 ....................................................................................................................................................................................................................................
(PID.TID 0000.0001)      0 ....................................................................................................................................................................................................................................
(PID.TID 0000.0001)     -1 ....................................................................................................................................................................................................................................
(PID.TID 0000.0001)     -2 ....................................................................................................................................................................................................................................
(PID.TID 0000.0001) // =======================================================
(PID.TID 0000.0001) // END OF FIELD                                          =
(PID.TID 0000.0001) // =======================================================
(PID.TID 0000.0001) 
(PID.TID 0000.0001) // =======================================================
(PID.TID 0000.0001) // Begin MONITOR dynamic field statistics
(PID.TID 0000.0001) // =======================================================
(PID.TID 0000.0001) %MON time_tsnumber                =                   246
(PID.TID 0000.0001) %MON time_secondsf                =   8.8560000000000E+05
(PID.TID 0000.0001) %MON time_secondsi                =                885600
(PID.TID 0000.0001) %MON dynstat_eta_max              =   0.0000000000000E+00
(PID.TID 0000.0001) %MON dynstat_eta_min              =   0.0000000000000E+00
(PID.TID 0000.0001) %MON dynstat_eta_mean             =   0.0000000000000E+00
(PID.TID 0000.0001) %MON dynstat_eta_sd               =   0.0000000000000E+00
(PID.TID 0000.0001) %MON dynstat_eta_del2             =   0.0000000000000E+00
(PID.TID 0000.0001) %MON dynstat_uvel_max             =   3.8588909729170E+01
(PID.TID 0000.0001) %MON dynstat_uvel_min             =  -2.6640751857540E+01
(PID.TID 0000.0001) %MON dynstat_uvel_mean            =   1.1767582051515E+01
(PID.TID 0000.0001) %MON dynstat_uvel_sd              =   1.8925013763619E+01
(PID.TID 0000.0001) %MON dynstat_uvel_del2            =   3.3977035061841E-02
(PID.TID 0000.0001) %MON dynstat_vvel_max             =   3.8588909729170E+01
(PID.TID 0000.0001) %MON dynstat_vvel_min             =  -2.6640751857540E+01
(PID.TID 0000.0001) %MON dynstat_vvel_mean            =   1.1767582051515E+01
(PID.TID 0000.0001) %MON dynstat_vvel_sd              =   1.8925013763619E+01
(PID.TID 0000.0001) %MON dynstat_vvel_del2            =   3.3977035061841E-02
(PID.TID 0000.0001) %MON dynstat_wvel_max             =   4.8259469367879E-15
(PID.TID 0000.0001) %MON dynstat_wvel_min             =  -4.8259469367879E-15
(PID.TID 0000.0001) %MON dynstat_wvel_mean            =  -2.6408038640800E-34
(PID.TID 0000.0001) %MON dynstat_wvel_sd              =   1.3451301434752E-15
(PID.TID 0000.0001) %MON dynstat_wvel_del2            =   1.3733452540939E-15
(PID.TID 0000.0001) %MON dynstat_theta_max            =   1.7889412325525E+00
(PID.TID 0000.0001) %MON dynstat_theta_min            =   9.9989248812767E-01
(PID.TID 0000.0001) %MON dynstat_theta_mean           =   1.0066874826115E+00
(PID.TID 0000.0001) %MON dynstat_theta_sd             =   5.5419913782008E-02
(PID.TID 0000.0001) %MON dynstat_theta_del2           =   3.6754525071092E-04
(PID.TID 0000.0001) %MON dynstat_salt_max             =   1.8287513117841E+00
(PID.TID 0000.0001) %MON dynstat_salt_min             =   9.9965362186603E-01
(PID.TID 0000.0001) %MON dynstat_salt_mean            =   1.0068998611705E+00
(PID.TID 0000.0001) %MON dynstat_salt_sd              =   5.7951829434720E-02
(PID.TID 0000.0001) %MON dynstat_salt_del2            =   4.0423074673021E-04
(PID.TID 0000.0001) %MON advcfl_uvel_max              =   1.0218201555446E+00
(PID.TID 0000.0001) %MON advcfl_vvel_max              =   1.0218201555446E+00
(PID.TID 0000.0001) %MON advcfl_wvel_max              =   3.4746817944873E-16
(PID.TID 0000.0001) %MON advcfl_W_hf_max              =   0.0000000000000E+00
(PID.TID 0000.0001) %MON ke_max                       =   7.4455150023606E+02
(PID.TID 0000.0001) %MON ke_mean                      =   4.9661803126781E+02
(PID.TID 0000.0001) %MON ke_volint                    =   2.5323489810542E+22
(PID.TID 0000.0001) %MON ke_volmean                   =   4.9663214534537E+02
(PID.TID 0000.0001) // =======================================================
(PID.TID 0000.0001) // End MONITOR dynamic field statistics
(PID.TID 0000.0001) // =======================================================
(PID.TID 0000.0001) // =======================================================
(PID.TID 0000.0001) // Begin MONITOR dynamic field statistics
(PID.TID 0000.0001) // =======================================================
(PID.TID 0000.0001) %MON time_tsnumber                =                   252
(PID.TID 0000.0001) %MON time_secondsf                =   9.0720000000000E+05
(PID.TID 0000.0001) %MON time_secondsi                =                907200
(PID.TID 0000.0001) %MON dynstat_eta_max              =   0.0000000000000E+00
(PID.TID 0000.0001) %MON dynstat_eta_min              =   0.0000000000000E+00
(PID.TID 0000.0001) %MON dynstat_eta_mean             =   0.0000000000000E+00
(PID.TID 0000.0001) %MON dynstat_eta_sd               =   0.0000000000000E+00
(PID.TID 0000.0001) %MON dynstat_eta_del2             =   0.0000000000000E+00
(PID.TID 0000.0001) %MON dynstat_uvel_max             =   3.8588909729170E+01
(PID.TID 0000.0001) %MON dynstat_uvel_min             =  -2.6640751857540E+01
(PID.TID 0000.0001) %MON dynstat_uvel_mean            =   1.1767582051515E+01
(PID.TID 0000.0001) %MON dynstat_uvel_sd              =   1.8925013763619E+01
(PID.TID 0000.0001) %MON dynstat_uvel_del2            =   3.3977035061841E-02
(PID.TID 0000.0001) %MON dynstat_vvel_max             =   3.8588909729170E+01
(PID.TID 0000.0001) %MON dynstat_vvel_min             =  -2.6640751857540E+01
(PID.TID 0000.0001) %MON dynstat_vvel_mean            =   1.1767582051515E+01
(PID.TID 0000.0001) %MON dynstat_vvel_sd              =   1.8925013763619E+01
(PID.TID 0000.0001) %MON dynstat_vvel_del2            =   3.3977035061841E-02
(PID.TID 0000.0001) %MON dynstat_wvel_max             =   4.8259469367879E-15
(PID.TID 0000.0001) %MON dynstat_wvel_min             =  -4.8259469367879E-15
(PID.TID 0000.0001) %MON dynstat_wvel_mean            =  -2.6408038640800E-34
(PID.TID 0000.0001) %MON dynstat_wvel_sd              =   1.3451301434752E-15
(PID.TID 0000.0001) %MON dynstat_wvel_del2            =   1.3733452540939E-15
(PID.TID 0000.0001) %MON dynstat_theta_max            =   1.7849552860461E+00
(PID.TID 0000.0001) %MON dynstat_theta_min            =   9.9989620737847E-01
(PID.TID 0000.0001) %MON dynstat_theta_mean           =   1.0066874826115E+00
(PID.TID 0000.0001) %MON dynstat_theta_sd             =   5.5331532809834E-02
(PID.TID 0000.0001) %MON dynstat_theta_del2           =   3.6827135826063E-04
(PID.TID 0000.0001) %MON dynstat_salt_max             =   1.8274913347201E+00
(PID.TID 0000.0001) %MON dynstat_salt_min             =   9.9968457221902E-01
(PID.TID 0000.0001) %MON dynstat_salt_mean            =   1.0069368191974E+00
(PID.TID 0000.0001) %MON dynstat_salt_sd              =   5.8132758878450E-02
(PID.TID 0000.0001) %MON dynstat_salt_del2            =   3.9598296830760E-04
(PID.TID 0000.0001) %MON advcfl_uvel_max              =   1.0218201555446E+00
(PID.TID 0000.0001) %MON advcfl_vvel_max              =   1.0218201555446E+00
(PID.TID 0000.0001) %MON advcfl_wvel_max              =   3.4746817944873E-16
(PID.TID 0000.0001) %MON advcfl_W_hf_max              =   0.0000000000000E+00
(PID.TID 0000.0001) %MON ke_max                       =   7.4455150023606E+02
(PID.TID 0000.0001) %MON ke_mean                      =   4.9661803126781E+02
(PID.TID 0000.0001) %MON ke_volint                    =   2.5323489810542E+22
(PID.TID 0000.0001) %MON ke_volmean                   =   4.9663214534537E+02
(PID.TID 0000.0001) // =======================================================
(PID.TID 0000.0001) // End MONITOR dynamic field statistics
(PID.TID 0000.0001) // =======================================================
(PID.TID 0000.0001) // =======================================================
(PID.TID 0000.0001) // Begin MONITOR dynamic field statistics
(PID.TID 0000.0001) // =======================================================
(PID.TID 0000.0001) %MON time_tsnumber                =                   258
(PID.TID 0000.0001) %MON time_secondsf                =   9.2880000000000E+05
(PID.TID 0000.0001) %MON time_secondsi                =                928800
(PID.TID 0000.0001) %MON dynstat_eta_max              =   0.0000000000000E+00
(PID.TID 0000.0001) %MON dynstat_eta_min              =   0.0000000000000E+00
(PID.TID 0000.0001) %MON dynstat_eta_mean             =   0.0000000000000E+00
(PID.TID 0000.0001) %MON dynstat_eta_sd               =   0.0000000000000E+00
(PID.TID 0000.0001) %MON dynstat_eta_del2             =   0.0000000000000E+00
(PID.TID 0000.0001) %MON dynstat_uvel_max             =   3.8588909729170E+01
(PID.TID 0000.0001) %MON dynstat_uvel_min             =  -2.6640751857540E+01
(PID.TID 0000.0001) %MON dynstat_uvel_mean            =   1.1767582051515E+01
(PID.TID 0000.0001) %MON dynstat_uvel_sd              =   1.8925013763619E+01
(PID.TID 0000.0001) %MON dynstat_uvel_del2            =   3.3977035061841E-02
(PID.TID 0000.0001) %MON dynstat_vvel_max             =   3.8588909729170E+01
(PID.TID 0000.0001) %MON dynstat_vvel_min             =  -2.6640751857540E+01
(PID.TID 0000.0001) %MON dynstat_vvel_mean            =   1.1767582051515E+01
(PID.TID 0000.0001) %MON dynstat_vvel_sd              =   1.8925013763619E+01
(PID.TID 0000.0001) %MON dynstat_vvel_del2            =   3.3977035061841E-02
(PID.TID 0000.0001) %MON dynstat_wvel_max             =   4.8259469367879E-15
(PID.TID 0000.0001) %MON dynstat_wvel_min             =  -4.8259469367879E-15
(PID.TID 0000.0001) %MON dynstat_wvel_mean            =  -2.6408038640800E-34
(PID.TID 0000.0001) %MON dynstat_wvel_sd              =   1.3451301434752E-15
(PID.TID 0000.0001) %MON dynstat_wvel_del2            =   1.3733452540939E-15
(PID.TID 0000.0001) %MON dynstat_theta_max            =   1.7845150159776E+00
(PID.TID 0000.0001) %MON dynstat_theta_min            =   9.9990143372106E-01
(PID.TID 0000.0001) %MON dynstat_theta_mean           =   1.0066874826115E+00
(PID.TID 0000.0001) %MON dynstat_theta_sd             =   5.5241836898876E-02
(PID.TID 0000.0001) %MON dynstat_theta_del2           =   3.6623282427488E-04
(PID.TID 0000.0001) %MON dynstat_salt_max             =   1.8277377452260E+00
(PID.TID 0000.0001) %MON dynstat_salt_min             =   9.9969878963612E-01
(PID.TID 0000.0001) %MON dynstat_salt_mean            =   1.0069716652485E+00
(PID.TID 0000.0001) %MON dynstat_salt_sd              =   5.8308907738012E-02
(PID.TID 0000.0001) %MON dynstat_salt_del2            =   3.9364191393662E-04
(PID.TID 0000.0001) %MON advcfl_uvel_max              =   1.0218201555446E+00
(PID.TID 0000.0001) %MON advcfl_vvel_max              =   1.0218201555446E+00
(PID.TID 0000.0001) %MON advcfl_wvel_max              =   3.4746817944873E-16
(PID.TID 0000.0001) %MON advcfl_W_hf_max              =   0.0000000000000E+00
(PID.TID 0000.0001) %MON ke_max                       =   7.4455150023606E+02
(PID.TID 0000.0001) %MON ke_mean                      =   4.9661803126781E+02
(PID.TID 0000.0001) %MON ke_volint                    =   2.5323489810542E+22
(PID.TID 0000.0001) %MON ke_volmean                   =   4.9663214534537E+02
(PID.TID 0000.0001) // =======================================================
(PID.TID 0000.0001) // End MONITOR dynamic field statistics
(PID.TID 0000.0001) // =======================================================
(PID.TID 0000.0001) // =======================================================
(PID.TID 0000.0001) // Begin MONITOR dynamic field statistics
(PID.TID 0000.0001) // =======================================================
(PID.TID 0000.0001) %MON time_tsnumber                =                   264
(PID.TID 0000.0001) %MON time_secondsf                =   9.5040000000000E+05
(PID.TID 0000.0001) %MON time_secondsi                =                950400
(PID.TID 0000.0001) %MON dynstat_eta_max              =   0.0000000000000E+00
(PID.TID 0000.0001) %MON dynstat_eta_min              =   0.0000000000000E+00
(PID.TID 0000.0001) %MON dynstat_eta_mean             =   0.0000000000000E+00
(PID.TID 0000.0001) %MON dynstat_eta_sd               =   0.0000000000000E+00
(PID.TID 0000.0001) %MON dynstat_eta_del2             =   0.0000000000000E+00
(PID.TID 0000.0001) %MON dynstat_uvel_max             =   3.8588909729170E+01
(PID.TID 0000.0001) %MON dynstat_uvel_min             =  -2.6640751857540E+01
(PID.TID 0000.0001) %MON dynstat_uvel_mean            =   1.1767582051515E+01
(PID.TID 0000.0001) %MON dynstat_uvel_sd              =   1.8925013763619E+01
(PID.TID 0000.0001) %MON dynstat_uvel_del2            =   3.3977035061841E-02
(PID.TID 0000.0001) %MON dynstat_vvel_max             =   3.8588909729170E+01
(PID.TID 0000.0001) %MON dynstat_vvel_min             =  -2.6640751857540E+01
(PID.TID 0000.0001) %MON dynstat_vvel_mean            =   1.1767582051515E+01
(PID.TID 0000.0001) %MON dynstat_vvel_sd              =   1.8925013763619E+01
(PID.TID 0000.0001) %MON dynstat_vvel_del2            =   3.3977035061841E-02
(PID.TID 0000.0001) %MON dynstat_wvel_max             =   4.8259469367879E-15
(PID.TID 0000.0001) %MON dynstat_wvel_min             =  -4.8259469367879E-15
(PID.TID 0000.0001) %MON dynstat_wvel_mean            =  -2.6408038640800E-34
(PID.TID 0000.0001) %MON dynstat_wvel_sd              =   1.3451301434752E-15
(PID.TID 0000.0001) %MON dynstat_wvel_del2            =   1.3733452540939E-15
(PID.TID 0000.0001) %MON dynstat_theta_max            =   1.7816980535643E+00
(PID.TID 0000.0001) %MON dynstat_theta_min            =   9.9990693633820E-01
(PID.TID 0000.0001) %MON dynstat_theta_mean           =   1.0066874826115E+00
(PID.TID 0000.0001) %MON dynstat_theta_sd             =   5.5151212735685E-02
(PID.TID 0000.0001) %MON dynstat_theta_del2           =   3.6608025164859E-04
(PID.TID 0000.0001) %MON dynstat_salt_max             =   1.8264812747338E+00
(PID.TID 0000.0001) %MON dynstat_salt_min             =   9.9971507453396E-01
(PID.TID 0000.0001) %MON dynstat_salt_mean            =   1.0069862749103E+00
(PID.TID 0000.0001) %MON dynstat_salt_sd              =   5.8271535534278E-02
(PID.TID 0000.0001) %MON dynstat_salt_del2            =   4.0042883665538E-04
(PID.TID 0000.0001) %MON advcfl_uvel_max              =   1.0218201555446E+00
(PID.TID 0000.0001) %MON advcfl_vvel_max              =   1.0218201555446E+00
(PID.TID 0000.0001) %MON advcfl_wvel_max              =   3.4746817944873E-16
(PID.TID 0000.0001) %MON advcfl_W_hf_max              =   0.0000000000000E+00
(PID.TID 0000.0001) %MON ke_max                       =   7.4455150023606E+02
(PID.TID 0000.0001) %MON ke_mean                      =   4.9661803126781E+02
(PID.TID 0000.0001) %MON ke_volint                    =   2.5323489810542E+22
(PID.TID 0000.0001) %MON ke_volmean                   =   4.9663214534537E+02
(PID.TID 0000.0001) // =======================================================
(PID.TID 0000.0001) // End MONITOR dynamic field statistics
(PID.TID 0000.0001) // =======================================================
(PID.TID 0000.0001) // =======================================================
(PID.TID 0000.0001) // Field Current uVel   at iteration        264
(PID.TID 0000.0001) // CMIN =         -2.664075185753955E+01
(PID.TID 0000.0001) // CMAX =          3.858890972916976E+01
(PID.TID 0000.0001) // CINT =          2.415913392100345E+00
(PID.TID 0000.0001) // SYMBOLS (CMIN->CMAX): -abcdefghijklmnopqrstuvwxyz+
(PID.TID 0000.0001) //                  0.0: .
(PID.TID 0000.0001) // RANGE I (Lo:Hi:Step):(   1: 192:   1)
(PID.TID 0000.0001) // RANGE J (Lo:Hi:Step):(  32:   1:  -1)
(PID.TID 0000.0001) // RANGE K (Lo:Hi:Step):(   1:   1:   1)
(PID.TID 0000.0001) // =======================================================
(PID.TID 0000.0001) K =   1
(PID.TID 0000.0001)                I=10      I=20      I=30      I=40      I=50      I=60      I=70      I=80      I=90      I=100     I=110     I=120     I=130     I=140     I=150     I=160     I=170     I=180     I=190
(PID.TID 0000.0001) |--J--|123456789|123456789|123456789|123456789|123456789|123456789|123456789|123456789|123456789|123456789|123456789|123456789|123456789|123456789|123456789|123456789|123456789|123456789|123456789|12
(PID.TID 0000.0001)     32 xwwwwwwwwwwwwwwwwwwwwwwwwwwwwwwwxwwwwwwwwwwwwwwwwwwwwwwwwwwwwwwwea-----------------------------aeijjkkkkkkkkkkkk.kkkkkkkkkkkkllmeijjkkkkkkkkkkkk.kkkkkkkkkkkkllmquvvvvvvvvvvvvvvvvvvvvvvvvvvvvvu
(PID.TID 0000.0001)     31 xxxxwwwwwwwwwwwwwwwwwwwwwwwwwxxxxxxxwwwwwwwwwwwwwwwwwwwwwwwwwxxxecbaaaaaaaaaaaaaaaaaaaaaaaaaaabcegiijjjjkkkkkkkk.kkkkkkkkllllmmoegiijjjjkkkkkkkk.kkkkkkkkllllmmoqstuuuuuuuuuuuuuuuuuuuuuuuuuuuts
(PID.TID 0000.0001)     30 yxxxxxxxxxxxxxxxxxxxxxxxxxxxxxxxyxxxxxxxxxxxxxxxxxxxxxxxxxxxxxxxedcbbbaaaaaaaaaaaaaaaaaaaaabbbcdeghiijjjjjkkkkkk.kkkkkklllllmmnpeghiijjjjjkkkkkk.kkkkkklllllmmnpqrstttuuuuuuuuuuuuuuuuuuuuutttsr
(PID.TID 0000.0001)     29 yyyyxxxxxxxxxxxxxxxxxxxxxxxxxyyyyyyyxxxxxxxxxxxxxxxxxxxxxxxxxyyyeddccbbbbbbbbbbbbbbbbbbbbbbbccddefghiijjjjjkkkkk.kkkkklllllmmnopefghiijjjjjkkkkk.kkkkklllllmmnopqrssstttttttttttttttttttttttsssr
(PID.TID 0000.0001)     28 yyyyyyyyyyyxxxxxxxxxxxyyyyyyyyyyyyyyyyyyyyyxxxxxxxxxxxyyyyyyyyyyfeddccccccbbbbbbbbbbbbbccccccddeffghiiijjjjjkkkk.kkkklllllmmnnopffghiiijjjjjkkkk.kkkklllllmmnnoppqrrssssstttttttttttttttsssssrrq
(PID.TID 0000.0001)     27 yyyyyyyyyyyyyyyyyyyyyyyyyyyyyyyyyyyyyyyyyyyyyyyyyyyyyyyyyyyyyyyyfeeddddcccccccccccccccccccddddeefgghhiijjjjjkkkk.kkkklllllmmnnoofgghhiijjjjjkkkk.kkkklllllmmnnoopqqrrrsssssssssssssssssssssrrrqq
(PID.TID 0000.0001)     26 zzzzyyyyyyyyyyyyyyyyyyyyyyyyyzzzzzzzyyyyyyyyyyyyyyyyyyyyyyyyyzzzffeeedddddddddddddddddddddddeeeffgghhiijjjjjkkkk.kkklllllmmmnnoofgghhiijjjjjkkkk.kkklllllmmmnnooppqqqrrrrrrrrrrrrrrrrrrrrrrrqqqp
(PID.TID 0000.0001)     25 zzzzzzzzzzzzzzzzzzzzzzzzzzzzzzzzzzzzzzzzzzzzzzzzzzzzzzzzzzzzzzzzgfffeeeeeeeedddddddddeeeeeeeefffgghhiiijjjjjkkkk.kkklllllmmmnnnogghhiiijjjjjkkkk.kkklllllmmmnnnoopppqqqqqqrrrrrrrrrrrrrqqqqqqppp
(PID.TID 0000.0001)     24 zzzzzzzzzzzzzzzzzzzzzzzzzzzzzzzzzzzzzzzzzzzzzzzzzzzzzzzzzzzzzzzzgggfffffeeeeeeeeeeeeeeeeefffffggghhhiiijjjjjkkkk.kkkllllllmmmnnnghhhiiijjjjjkkkk.kkkllllllmmmnnnoopppppqqqqqqqqqqqqqqqqqqqpppppo
(PID.TID 0000.0001)     23 zzzzzzzzzzzzzzzzzzzzzzzzzzzzzzzzzzzzzzzzzzzzzzzzzzzzzzzzzzzzzzzzhggggfffffffffffffffffffffffgggghhhiiiijjjjjkkkk.kkkklllllmmmmnnhhhiiiijjjjjkkkk.kkkklllllmmmmnnnoooopppppppppppppppppppppppoooo
(PID.TID 0000.0001)     22 zzzzzzzzzzzzzzzzzzzzzzzzzzzzzzzzzzzzzzzzzzzzzzzzzzzzzzzzzzzzzzzzhhhhggggggggggggggggggggggggghhhhhiiiijjjjjjkkkk.kkkkllllllmmmmnhhiiiijjjjjjkkkk.kkkkllllllmmmmnnnnooooooooooooooooooooooooooonn
(PID.TID 0000.0001)     21 ++++++++++++++++++++++++++++++++++++++++++++++++++++++++++++++++ihhhhhhhhhhggggggggggghhhhhhhhhhiiiiijjjjjjkkkkk.kkkkkllllllmmmmiiiiijjjjjjkkkkk.kkkkkllllllmmmmmnnnnnnnnnooooooooooooonnnnnnnnn
(PID.TID 0000.0001)     20 ++++++++++++++++++++++++++++++++++++++++++++++++++++++++++++++++iiiiiihhhhhhhhhhhhhhhhhhhhhiiiiiiiijjjjjjjkkkkkk.kkkkkklllllllmmiiijjjjjjjkkkkkk.kkkkkklllllllmmmmmmmmnnnnnnnnnnnnnnnnnnnnnmmmmm
(PID.TID 0000.0001)     19 ++++++++++++++++++++++++++++++++++++++++++++++++++++++++++++++++jjiiiiiiiiiiiiiiiiiiiiiiiiiiiiijjjjjjjjjkkkkkkkk.kkkkkkklllllllljjjjjjjjkkkkkkkk.kkkkkkkllllllllllmmmmmmmmmmmmmmmmmmmmmmmmmmmmml
(PID.TID 0000.0001)     18 ++++++++++++++++++++++++++++++++++++++++++++++++++++++++++++++++jjjjjjjjjjjjjjjjjjjjjjjjjjjjjjjjjjjjjkkkkkkkkkkk.kkkkkkkkkkklllljjjjjkkkkkkkkkkk.kkkkkkkkkkkllllllllllllllllllllllllllllllllllll
(PID.TID 0000.0001)     17 ++++++++++++++++++++++++++++++++++++++++++++++++++++++++++++++++kkkkkkkkkkkkkkkkkkkkkkkkkkkkkkkkkkkkkkkkkkkkkkkk.kkkkkkkkkkkkkkkkkkkkkkkkkkkkkkk.kkkkkkkkkkkkkkkkkkkkkkkkkkkkkkkkkkkkkkkkkkkkkkk
(PID.TID 0000.0001)     16 ++++++++++++++++++++++++++++++++++++++++++++++++++++++++++++++++kkkkkkkkkkkkkkkkkkkkkkkkkkkkkkkkkkkkkkkkkkkkkkkk.kkkkkkkkkkkkkkkkkkkkkkkkkkkkkkk.kkkkkkkkkkkkkkkkkkkkkkkkkkkkkkkkkkkkkkkkkkkkkkk
(PID.TID 0000.0001)     15 ++++++++++++++++++++++++++++++++++++++++++++++++++++++++++++++++lllllllllllllllllllllllllllllllllllllkkkkkkkkkkk.kkkkkkkkkkkjjjjlllllkkkkkkkkkkk.kkkkkkkkkkkjjjjjjjjjjjjjjjjjjjjjjjjjjjjjjjjjjjj
(PID.TID 0000.0001)     14 ++++++++++++++++++++++++++++++++++++++++++++++++++++++++++++++++llmmmmmmmmmmmmmmmmmmmmmmmmmmmmmllllllllllkkkkkkk.kkkkkkkkjjjjjjjlllllllllkkkkkkk.kkkkkkkkjjjjjjjjjiiiiiiiiiiiiiiiiiiiiiiiiiiiiij
(PID.TID 0000.0001)     13 ++++++++++++++++++++++++++++++++++++++++++++++++++++++++++++++++mmmmmmnnnnnnnnnnnnnnnnnnnnnmmmmmmmmlllllllkkkkkk.kkkkkkjjjjjjjiimmmlllllllkkkkkk.kkkkkkjjjjjjjiiiiiiiihhhhhhhhhhhhhhhhhhhhhiiiii
(PID.TID 0000.0001)     12 ++++++++++++++++++++++++++++++++++++++++++++++++++++++++++++++++mnnnnnnnnnooooooooooooonnnnnnnnnmmmmmllllllkkkkk.kkkkkjjjjjjiiiimmmmmllllllkkkkk.kkkkkjjjjjjiiiiihhhhhhhhhhggggggggggghhhhhhhhhh
(PID.TID 0000.0001)     11 zzzzzzzzzzzzzzzzzzzzzzzzzzzzzzzzzzzzzzzzzzzzzzzzzzzzzzzzzzzzzzzznnnooooooooooooooooooooooooooonnnnmmmmllllllkkkk.kkkkjjjjjjiiiihnnmmmmllllllkkkk.kkkkjjjjjjiiiihhhhhggggggggggggggggggggggggghhh
(PID.TID 0000.0001)     10 zzzzzzzzzzzzzzzzzzzzzzzzzzzzzzzzzzzzzzzzzzzzzzzzzzzzzzzzzzzzzzzznoooopppppppppppppppppppppppoooonnnmmmmlllllkkkk.kkkkjjjjjiiiihhnnnmmmmlllllkkkk.kkkkjjjjjiiiihhhggggfffffffffffffffffffffffgggg
(PID.TID 0000.0001)      9 zzzzzzzzzzzzzzzzzzzzzzzzzzzzzzzzzzzzzzzzzzzzzzzzzzzzzzzzzzzzzzzzoopppppqqqqqqqqqqqqqqqqqqqpppppoonnnmmmllllllkkk.kkkkjjjjjiiihhhonnnmmmllllllkkk.kkkkjjjjjiiihhhgggfffffeeeeeeeeeeeeeeeeefffffgg
(PID.TID 0000.0001)      8 zzzzzzzzzzzzzzzzzzzzzzzzzzzzzzzzzzzzzzzzzzzzzzzzzzzzzzzzzzzzzzzzopppqqqqqqrrrrrrrrrrrrrqqqqqqpppoonnnmmmlllllkkk.kkkkjjjjjiiihhgoonnnmmmlllllkkk.kkkkjjjjjiiihhggfffeeeeeeeedddddddddeeeeeeeefff
(PID.TID 0000.0001)      7 zzzzyyyyyyyyyyyyyyyyyyyyyyyyyzzzzzzzyyyyyyyyyyyyyyyyyyyyyyyyyzzzppqqqrrrrrrrrrrrrrrrrrrrrrrrqqqppoonnmmmlllllkkk.kkkkjjjjjiihhggpoonnmmmlllllkkk.kkkkjjjjjiihhggffeeedddddddddddddddddddddddeeef
(PID.TID 0000.0001)      6 yyyyyyyyyyyyyyyyyyyyyyyyyyyyyyyyyyyyyyyyyyyyyyyyyyyyyyyyyyyyyyyypqqrrrsssssssssssssssssssssrrrqqpoonnmmlllllkkkk.kkkkjjjjjiihhggpoonnmmlllllkkkk.kkkkjjjjjiihhggfeeddddcccccccccccccccccccddddee
(PID.TID 0000.0001)      5 yyyyyyyyyyyxxxxxxxxxxxyyyyyyyyyyyyyyyyyyyyyxxxxxxxxxxxyyyyyyyyyypqrrssssstttttttttttttttsssssrrqpponnmmlllllkkkk.kkkkjjjjjiiihgfpponnmmlllllkkkk.kkkkjjjjjiiihgffeddccccccbbbbbbbbbbbbbccccccdde
(PID.TID 0000.0001)      4 yyyyxxxxxxxxxxxxxxxxxxxxxxxxxyyyyyyyxxxxxxxxxxxxxxxxxxxxxxxxxyyyqrssstttttttttttttttttttttttsssrqponmmlllllkkkkk.kkkkkjjjjjiihgfqponmmlllllkkkkk.kkkkkjjjjjiihgfeddccbbbbbbbbbbbbbbbbbbbbbbbccdd
(PID.TID 0000.0001)      3 yxxxxxxxxxxxxxxxxxxxxxxxxxxxxxxxyxxxxxxxxxxxxxxxxxxxxxxxxxxxxxxxqrstttuuuuuuuuuuuuuuuuuuuuutttsrqpnmmlllllkkkkkk.kkkkkkjjjjjiihgqpnmmlllllkkkkkk.kkkkkkjjjjjiihgedcbbbaaaaaaaaaaaaaaaaaaaaabbbcd
(PID.TID 0000.0001)      2 xxxxwwwwwwwwwwwwwwwwwwwwwwwwwxxxxxxxwwwwwwwwwwwwwwwwwwwwwwwwwxxxqstuuuuuuuuuuuuuuuuuuuuuuuuuuutsqommllllkkkkkkkk.kkkkkkkkjjjjiigqommllllkkkkkkkk.kkkkkkkkjjjjiigecbaaaaaaaaaaaaaaaaaaaaaaaaaaabc
(PID.TID 0000.0001)      1 xwwwwwwwwwwwwwwwwwwwwwwwwwwwwwwwxwwwwwwwwwwwwwwwwwwwwwwwwwwwwwwwquvvvvvvvvvvvvvvvvvvvvvvvvvvvvvuqmllkkkkkkkkkkkk.kkkkkkkkkkkkjjiqmllkkkkkkkkkkkk.kkkkkkkkkkkkjjiea-----------------------------a
(PID.TID 0000.0001) // =======================================================
(PID.TID 0000.0001) // END OF FIELD                                          =
(PID.TID 0000.0001) // =======================================================
(PID.TID 0000.0001) 
(PID.TID 0000.0001) // =======================================================
(PID.TID 0000.0001) // Field Current vVel   at iteration        264
(PID.TID 0000.0001) // CMIN =         -2.664075185753955E+01
(PID.TID 0000.0001) // CMAX =          3.858890972916976E+01
(PID.TID 0000.0001) // CINT =          2.415913392100345E+00
(PID.TID 0000.0001) // SYMBOLS (CMIN->CMAX): -abcdefghijklmnopqrstuvwxyz+
(PID.TID 0000.0001) //                  0.0: .
(PID.TID 0000.0001) // RANGE I (Lo:Hi:Step):(   1: 192:   1)
(PID.TID 0000.0001) // RANGE J (Lo:Hi:Step):(  32:   1:  -1)
(PID.TID 0000.0001) // RANGE K (Lo:Hi:Step):(   1:   1:   1)
(PID.TID 0000.0001) // =======================================================
(PID.TID 0000.0001) K =   1
(PID.TID 0000.0001)                I=10      I=20      I=30      I=40      I=50      I=60      I=70      I=80      I=90      I=100     I=110     I=120     I=130     I=140     I=150     I=160     I=170     I=180     I=190
(PID.TID 0000.0001) |--J--|123456789|123456789|123456789|123456789|123456789|123456789|123456789|123456789|123456789|123456789|123456789|123456789|123456789|123456789|123456789|123456789|123456789|123456789|123456789|12
(PID.TID 0000.0001)     32 iggffggghhhiijjkkllmmnnnooopppomiggffggghhhiijjkkllmmnnnooopppomacddeeffgghhijjkkllmnnooppqqrrsuwxxyyyzzzzz++++++++++zzzzzyyyxxwwxxyyyzzzzz++++++++++zzzzzyyyxxwusrrqqppoonnmllkkjjihhggffeeddca
(PID.TID 0000.0001)     31 jihgggghhhiiijjkkllmmmnnnoooonmljihgggghhhiiijjkkllmmmnnnoooonml-bcddeefgghhiijkklmmnnoppqqrsstvwxxyyyzzzzz++++++++++zzzzzyyyxxwwxxyyyzzzzz++++++++++zzzzzyyyxxwvtssrqqpponnmmlkkjiihhggfeeddcb-
(PID.TID 0000.0001)     30 jiihhhhhhiiijjjkklllmmmnnnnnnmmljiihhhhhhiiijjjkklllmmmnnnnnnmml-abcddeffghhiijkklmmnooppqrrstuvwxxyyyzzzzz++++++++++zzzzzyyyxxwwxxyyyzzzzz++++++++++zzzzzyyyxxwvutsrrqppoonmmlkkjiihhgffeddcba-
(PID.TID 0000.0001)     29 kjiiihhiiiiijjjkklllmmmmnnnnmmlkkjiiihhiiiiijjjkklllmmmmnnnnmmlk-abccdeefgghiijkklmmnoopqqrsstuvwwxxyyyzzzz++++++++++zzzzyyyxxwwwwxxyyyzzzz++++++++++zzzzyyyxxwwvutssrqqpoonmmlkkjiihggfeedccba-
(PID.TID 0000.0001)     28 kjjiiiiiiiijjjkkkklllmmmmmmmmllkkjjiiiiiiiijjjkkkklllmmmmmmmmllk-abbcddeffghiijkklmmnoppqrrsttuvwwxxyyyzzzz++++++++++zzzzyyyxxwwwwxxyyyzzzz++++++++++zzzzyyyxxwwvuttsrrqpponmmlkkjiihgffeddcbba-
(PID.TID 0000.0001)     27 kjjjiiiiiijjjjkkkkllllmmmmmmlllkkjjjiiiiiijjjjkkkkllllmmmmmmlllk-aabcddeffghhijkklmnnoppqrsstuuvwwxxyyyzzzz++++++++++zzzzyyyxxwwwwxxyyyzzzz++++++++++zzzzyyyxxwwvuutssrqpponnmlkkjihhgffeddcbaa-
(PID.TID 0000.0001)     26 kjjjjjjjjjjjjjkkkkllllllmmlllllkkjjjjjjjjjjjjjkkkkllllllmmlllllk-aabccdeffghhijkklmnnopqqrsstuuvwwxxyyyzzzz++++++++++zzzzyyyxxwwwwxxyyyzzzz++++++++++zzzzyyyxxwwvuutssrqqponnmlkkjihhgffedccbaa-
(PID.TID 0000.0001)     25 kkjjjjjjjjjjjkkkkkllllllllllllkkkkjjjjjjjjjjjkkkkkllllllllllllkk-aabccdeefghhijkklmnnopqqrsstuuvwwxxyyyzzzz++++++++++zzzzyyyxxwwwwxxyyyzzzz++++++++++zzzzyyyxxwwvuutssrqqponnmlkkjihhgfeedccbaa-
(PID.TID 0000.0001)     24 kkjjjjjjjjjjjkkkkkklllllllllllkkkkjjjjjjjjjjjkkkkkklllllllllllkk-aabccdeefghhijkklmnnopqqrsttuuvwwxxyyyzzzz++++++++++zzzzyyyxxwwwwxxyyyzzzz++++++++++zzzzyyyxxwwvuuttsrqqponnmlkkjihhgfeedccbaa-
(PID.TID 0000.0001)     23 kkkjjjjjjjjjkkkkkkkklllllllllkkkkkkjjjjjjjjjkkkkkkkklllllllllkkk-aabbcdeefghhijkklmnoopqrrsttuuvwwxxyyyzzzz++++++++++zzzzyyyxxwwwwxxyyyzzzz++++++++++zzzzyyyxxwwvuuttsrrqpoonmlkkjihhgfeedcbbaa-
(PID.TID 0000.0001)     22 kkkkjjjjjjjkkkkkkkkkklllllllkkkkkkkkjjjjjjjkkkkkkkkkklllllllkkkk-aabbcdeefgghijkklmnoopqrrsttuuvwwxxxyyzzzz++++++++++zzzzyyxxxwwwwxxxyyzzzz++++++++++zzzzyyxxxwwvuuttsrrqpoonmlkkjihggfeedcbbaa-
(PID.TID 0000.0001)     21 kkkkkkkkkkkkkkkkkkkkkkklllkkkkkkkkkkkkkkkkkkkkkkkkkkkkklllkkkkkk-aabbcddefgghijkklmnoopqrrsttuuvwwxxxyyzzzz++++++++++zzzzyyxxxwwwwxxxyyzzzz++++++++++zzzzyyxxxwwvuuttsrrqpoonmlkkjihggfeddcbbaa-
(PID.TID 0000.0001)     20 kkkkkkkkkkkkkkkkkkkkkkkkkkkkkkkkkkkkkkkkkkkkkkkkkkkkkkkkkkkkkkkk-aabbcddefgghijkklmnoopqrrsttuuvwwxxxyyzzzz++++++++++zzzzyyxxxwwwwxxxyyzzzz++++++++++zzzzyyxxxwwvuuttsrrqpoonmlkkjihggfeddcbbaa-
(PID.TID 0000.0001)     19 kkkkkkkkkkkkkkkkkkkkkkkkkkkkkkkkkkkkkkkkkkkkkkkkkkkkkkkkkkkkkkkk-aabbcddefgghijkklmnoopqrrsttuuvwwxxxyyzzzz++++++++++zzzzyyxxxwwwwxxxyyzzzz++++++++++zzzzyyxxxwwvuuttsrrqpoonmlkkjihggfeddcbbaa-
(PID.TID 0000.0001)     18 kkkkkkkkkkkkkkkkkkkkkkkkkkkkkkkkkkkkkkkkkkkkkkkkkkkkkkkkkkkkkkkk-aabbcddefgghijkklmnoopqrrsttuuvwwxxxyyzzzz++++++++++zzzzyyxxxwwwwxxxyyzzzz++++++++++zzzzyyxxxwwvuuttsrrqpoonmlkkjihggfeddcbbaa-
(PID.TID 0000.0001)     17 ................................................................-aabbcddefgghijkklmnoopqrrsttuuvwwxxxyyzzzz++++++++++zzzzyyxxxwwwwxxxyyzzzz++++++++++zzzzyyxxxwwvuuttsrrqpoonmlkkjihggfeddcbbaa-
(PID.TID 0000.0001)     16 kkkkkkkkkkkkkkkkkkkkkkkkkkkkkkkkkkkkkkkkkkkkkkkkkkkkkkkkkkkkkkkk-aabbcddefgghijkklmnoopqrrsttuuvwwxxxyyzzzz++++++++++zzzzyyxxxwwwwxxxyyzzzz++++++++++zzzzyyxxxwwvuuttsrrqpoonmlkkjihggfeddcbbaa-
(PID.TID 0000.0001)     15 kkkkkkkkkkkkkkkkkkkkkkkkkkkkkkkkkkkkkkkkkkkkkkkkkkkkkkkkkkkkkkkk-aabbcddefgghijkklmnoopqrrsttuuvwwxxxyyzzzz++++++++++zzzzyyxxxwwwwxxxyyzzzz++++++++++zzzzyyxxxwwvuuttsrrqpoonmlkkjihggfeddcbbaa-
(PID.TID 0000.0001)     14 kkkkkkkkkkkkkkkkkkkkkkkkkkkkkkkkkkkkkkkkkkkkkkkkkkkkkkkkkkkkkkkk-aabbcddefgghijkklmnoopqrrsttuuvwwxxxyyzzzz++++++++++zzzzyyxxxwwwwxxxyyzzzz++++++++++zzzzyyxxxwwvuuttsrrqpoonmlkkjihggfeddcbbaa-
(PID.TID 0000.0001)     13 kkkkkklllkkkkkkkkkkkkkkkkkkkkkkkkkkkkklllkkkkkkkkkkkkkkkkkkkkkkk-aabbcddefgghijkklmnoopqrrsttuuvwwxxxyyzzzz++++++++++zzzzyyxxxwwwwxxxyyzzzz++++++++++zzzzyyxxxwwvuuttsrrqpoonmlkkjihggfeddcbbaa-
(PID.TID 0000.0001)     12 kkkklllllllkkkkkkkkkkjjjjjjjkkkkkkkklllllllkkkkkkkkkkjjjjjjjkkkk-aabbcdeefgghijkklmnoopqrrsttuuvwwxxxyyzzzz++++++++++zzzzyyxxxwwwwxxxyyzzzz++++++++++zzzzyyxxxwwvuuttsrrqpoonmlkkjihggfeedcbbaa-
(PID.TID 0000.0001)     11 kkklllllllllkkkkkkkkjjjjjjjjjkkkkkklllllllllkkkkkkkkjjjjjjjjjkkk-aabbcdeefghhijkklmnoopqrrsttuuvwwxxyyyzzzz++++++++++zzzzyyyxxwwwwxxyyyzzzz++++++++++zzzzyyyxxwwvuuttsrrqpoonmlkkjihhgfeedcbbaa-
(PID.TID 0000.0001)     10 kklllllllllllkkkkkkjjjjjjjjjjjkkkklllllllllllkkkkkkjjjjjjjjjjjkk-aabccdeefghhijkklmnnopqqrsttuuvwwxxyyyzzzz++++++++++zzzzyyyxxwwwwxxyyyzzzz++++++++++zzzzyyyxxwwvuuttsrqqponnmlkkjihhgfeedccbaa-
(PID.TID 0000.0001)      9 kkllllllllllllkkkkkjjjjjjjjjjjkkkkllllllllllllkkkkkjjjjjjjjjjjkk-aabccdeefghhijkklmnnopqqrsstuuvwwxxyyyzzzz++++++++++zzzzyyyxxwwwwxxyyyzzzz++++++++++zzzzyyyxxwwvuutssrqqponnmlkkjihhgfeedccbaa-
(PID.TID 0000.0001)      8 klllllmmllllllkkkkjjjjjjjjjjjjjkklllllmmllllllkkkkjjjjjjjjjjjjjk-aabccdeffghhijkklmnnopqqrsstuuvwwxxyyyzzzz++++++++++zzzzyyyxxwwwwxxyyyzzzz++++++++++zzzzyyyxxwwvuutssrqqponnmlkkjihhgffedccbaa-
(PID.TID 0000.0001)      7 klllmmmmmmllllkkkkjjjjiiiiiijjjkklllmmmmmmllllkkkkjjjjiiiiiijjjk-aabcddeffghhijkklmnnoppqrsstuuvwwxxyyyzzzz++++++++++zzzzyyyxxwwwwxxyyyzzzz++++++++++zzzzyyyxxwwvuutssrqpponnmlkkjihhgffeddcbaa-
(PID.TID 0000.0001)      6 kllmmmmmmmmlllkkkkjjjiiiiiiiijjkkllmmmmmmmmlllkkkkjjjiiiiiiiijjk-abbcddeffghiijkklmmnoppqrrsttuvwwxxyyyzzzz++++++++++zzzzyyyxxwwwwxxyyyzzzz++++++++++zzzzyyyxxwwvuttsrrqpponmmlkkjiihgffeddcbba-
(PID.TID 0000.0001)      5 klmmnnnnmmmmlllkkjjjiiiiihhiiijkklmmnnnnmmmmlllkkjjjiiiiihhiiijk-abccdeefgghiijkklmmnoopqqrsstuvwwxxyyyzzzz++++++++++zzzzyyyxxwwwwxxyyyzzzz++++++++++zzzzyyyxxwwvutssrqqpoonmmlkkjiihggfeedccba-
(PID.TID 0000.0001)      4 lmmnnnnnnmmmlllkkjjjiiihhhhhhiijlmmnnnnnnmmmlllkkjjjiiihhhhhhiij-abcddeffghhiijkklmmnooppqrrstuvwxxyyyzzzzz++++++++++zzzzzyyyxxwwxxyyyzzzzz++++++++++zzzzzyyyxxwvutsrrqppoonmmlkkjiihhgffeddcba-
(PID.TID 0000.0001)      3 lmnoooonnnmmmllkkjjiiihhhgggghijlmnoooonnnmmmllkkjjiiihhhgggghij-bcddeefgghhiijkklmmnnoppqqrsstvwxxyyyzzzzz++++++++++zzzzzyyyxxwwxxyyyzzzzz++++++++++zzzzzyyyxxwvtssrqqpponnmmlkkjiihhggfeeddcb-
(PID.TID 0000.0001)      2 mopppooonnnmmllkkjjiihhhgggffggimopppooonnnmmllkkjjiihhhgggffggiacddeeffgghhijjkkllmnnooppqqrrsuwxxyyyzzzzz++++++++++zzzzzyyyxxwwxxyyyzzzzz++++++++++zzzzzyyyxxwusrrqqppoonnmllkkjjihhggffeeddca
(PID.TID 0000.0001)      1 qqqqpppoonnmmllkkjjiihhggfffeeeeqqqqpppoonnmmllkkjjiihhggfffeeeeeeeefffgghhiijjkkllmmnnoopppqqqqxxyyyyzzzzz++++++++++zzzzzyyyyxxxxyyyyzzzzz++++++++++zzzzzyyyyxxqqqqpppoonnmmllkkjjiihhggfffeeee
(PID.TID 0000.0001) // =======================================================
(PID.TID 0000.0001) // END OF FIELD                                          =
(PID.TID 0000.0001) // =======================================================
(PID.TID 0000.0001) 
(PID.TID 0000.0001) // =======================================================
(PID.TID 0000.0001) // Field Current theta  at iteration        264
(PID.TID 0000.0001) // CMIN =          9.999069363382016E-01
(PID.TID 0000.0001) // CMAX =          1.781698053564300E+00
(PID.TID 0000.0001) // CINT =          2.895522656392957E-02
(PID.TID 0000.0001) // SYMBOLS (CMIN->CMAX): -abcdefghijklmnopqrstuvwxyz+
(PID.TID 0000.0001) //                  0.0: .
(PID.TID 0000.0001) // RANGE I (Lo:Hi:Step):(   1: 192:   1)
(PID.TID 0000.0001) // RANGE J (Lo:Hi:Step):(  32:   1:  -1)
(PID.TID 0000.0001) // RANGE K (Lo:Hi:Step):(   1:   1:   1)
(PID.TID 0000.0001) // =======================================================
(PID.TID 0000.0001) K =   1
(PID.TID 0000.0001)                I=10      I=20      I=30      I=40      I=50      I=60      I=70      I=80      I=90      I=100     I=110     I=120     I=130     I=140     I=150     I=160     I=170     I=180     I=190
(PID.TID 0000.0001) |--J--|123456789|123456789|123456789|123456789|123456789|123456789|123456789|123456789|123456789|123456789|123456789|123456789|123456789|123456789|123456789|123456789|123456789|123456789|123456789|12
(PID.TID 0000.0001)     32 ------------------------------------------------------------------------------------------------------------------------------------------------------------------------------------------------
(PID.TID 0000.0001)     31 ------------------------------------------------------------------------------------------------------------------------------------------------------------------------------------------------
(PID.TID 0000.0001)     30 ------------------------------------------------------------------------------------------------------------------------------------------------------------------------------------------------
(PID.TID 0000.0001)     29 ------------------------------------------------------------------------------------------------------------------------------------------------------------------------------------------------
(PID.TID 0000.0001)     28 ------------------------------------------------------------------------------------------------------------------------------------------------------------------------------------------------
(PID.TID 0000.0001)     27 ------------------------------------------------------------------------------------------------------------------------------------------------------------------------------------------------
(PID.TID 0000.0001)     26 ------------------------------------------------------------------------------------------------------------------------------------------------------------------------------------------------
(PID.TID 0000.0001)     25 ------------------------------------------------------------------------------------------------------------------------------------------------------------------------------------------------
(PID.TID 0000.0001)     24 ------------------------------------------------------------------------------------------------------------------------------------------------------------------------------------------------
(PID.TID 0000.0001)     23 ------------------------------------------------------------------------------------------------------------------------------------------------------------------------------------------------
(PID.TID 0000.0001)     22 ----------------------------------aaaaa---------------------------------------------------------------------------------------------------------------------------------------------------------
(PID.TID 0000.0001)     21 --------------------------------abcddddcbaa-----------------------------------------------------------------------------------------------------------------------------------------------------
(PID.TID 0000.0001)     20 -------------------------------abegijjjhfdba----------------------------------------------------------------------------------------------------------------------------------------------------
(PID.TID 0000.0001)     19 -------------------------------bdhloqqqnkgda----------------------------------------------------------------------------------------------------------------------------------------------------
(PID.TID 0000.0001)     18 ------------------------------acfkpuwxwtpjfb----------------------------------------------------------------------------------------------------------------------------------------------------
(PID.TID 0000.0001)     17 ------------------------------acgmrwz+zwrlgb----------------------------------------------------------------------------------------------------------------------------------------------------
(PID.TID 0000.0001)     16 ------------------------------acgmrwz+zwrlgb----------------------------------------------------------------------------------------------------------------------------------------------------
(PID.TID 0000.0001)     15 ------------------------------acfkpuwxwtpjfb----------------------------------------------------------------------------------------------------------------------------------------------------
(PID.TID 0000.0001)     14 -------------------------------bdhloqqqnkgda----------------------------------------------------------------------------------------------------------------------------------------------------
(PID.TID 0000.0001)     13 -------------------------------abegijjjhfdba----------------------------------------------------------------------------------------------------------------------------------------------------
(PID.TID 0000.0001)     12 --------------------------------abcddddcbaa-----------------------------------------------------------------------------------------------------------------------------------------------------
(PID.TID 0000.0001)     11 ----------------------------------aaaaa---------------------------------------------------------------------------------------------------------------------------------------------------------
(PID.TID 0000.0001)     10 ------------------------------------------------------------------------------------------------------------------------------------------------------------------------------------------------
(PID.TID 0000.0001)      9 ------------------------------------------------------------------------------------------------------------------------------------------------------------------------------------------------
(PID.TID 0000.0001)      8 ------------------------------------------------------------------------------------------------------------------------------------------------------------------------------------------------
(PID.TID 0000.0001)      7 ------------------------------------------------------------------------------------------------------------------------------------------------------------------------------------------------
(PID.TID 0000.0001)      6 ------------------------------------------------------------------------------------------------------------------------------------------------------------------------------------------------
(PID.TID 0000.0001)      5 ------------------------------------------------------------------------------------------------------------------------------------------------------------------------------------------------
(PID.TID 0000.0001)      4 ------------------------------------------------------------------------------------------------------------------------------------------------------------------------------------------------
(PID.TID 0000.0001)      3 ------------------------------------------------------------------------------------------------------------------------------------------------------------------------------------------------
(PID.TID 0000.0001)      2 ------------------------------------------------------------------------------------------------------------------------------------------------------------------------------------------------
(PID.TID 0000.0001)      1 ------------------------------------------------------------------------------------------------------------------------------------------------------------------------------------------------
(PID.TID 0000.0001) // =======================================================
(PID.TID 0000.0001) // END OF FIELD                                          =
(PID.TID 0000.0001) // =======================================================
(PID.TID 0000.0001) 
(PID.TID 0000.0001) // =======================================================
(PID.TID 0000.0001) // Field Current etaN   at iteration        264
(PID.TID 0000.0001) // CMIN =          1.000000000000000E+32
(PID.TID 0000.0001) // CMAX =         -1.000000000000000E+32
(PID.TID 0000.0001) // CINT =          0.000000000000000E+00
(PID.TID 0000.0001) // SYMBOLS (CMIN->CMAX): -abcdefghijklmnopqrstuvwxyz+
(PID.TID 0000.0001) //                  0.0: .
(PID.TID 0000.0001) // RANGE I (Lo:Hi:Step):(  -2: 195:   1)
(PID.TID 0000.0001) // RANGE J (Lo:Hi:Step):(  35:  -2:  -1)
(PID.TID 0000.0001) // RANGE K (Lo:Hi:Step):(   1:   1:   1)
(PID.TID 0000.0001) // =======================================================
(PID.TID 0000.0001) K =   1
(PID.TID 0000.0001)                I=7       I=17      I=27      I=31      I=41      I=51      I=61      I=65      I=75      I=85      I=95      I=99      I=109     I=119     I=129     I=133     I=143     I=153     I=163     I=167     I=177     I=187
(PID.TID 0000.0001) |--J--|**0123456|890123456|890123456|890123450|234567890|234567890|234567890|234567234|678901234|678901234|678901234|678945678|012345678|012345678|012345678|016789012|456789012|456789012|456789012|890123456|890123456|890123456|89012345
(PID.TID 0000.0001)     35 ....................................................................................................................................................................................................................................
(PID.TID 0000.0001)     34 ....................................................................................................................................................................................................................................
(PID.TID 0000.0001)     33 ....................................................................................................................................................................................................................................
(PID.TID 0000.0001)     32 ....................................................................................................................................................................................................................................
(PID.TID 0000.0001)     31 ....................................................................................................................................................................................................................................
(PID.TID 0000.0001)     30 ....................................................................................................................................................................................................................................
(PID.TID 0000.0001)     29 ....................................................................................................................................................................................................................................
(PID.TID 0000.0001)     28 ....................................................................................................................................................................................................................................
(PID.TID 0000.0001)     27 ....................................................................................................................................................................................................................................
(PID.TID 0000.0001)     26 ....................................................................................................................................................................................................................................
(PID.TID 0000.0001)     25 ....................................................................................................................................................................................................................................
(PID.TID 0000.0001)     24 ....................................................................................................................................................................................................................................
(PID.TID 0000.0001)     23 ....................................................................................................................................................................................................................................
(PID.TID 0000.0001)     22 ....................................................................................................................................................................................................................................
(PID.TID 0000.0001)     21 ....................................................................................................................................................................................................................................
(PID.TID 0000.0001)     20 ....................................................................................................................................................................................................................................
(PID.TID 0000.0001)     19 ....................................................................................................................................................................................................................................
(PID.TID 0000.0001)     18 ....................................................................................................................................................................................................................................
(PID.TID 0000.0001)     17 ....................................................................................................................................................................................................................................
(PID.TID 0000.0001)     16 ....................................................................................................................................................................................................................................
(PID.TID 0000.0001)     15 ....................................................................................................................................................................................................................................
(PID.TID 0000.0001)     14 ....................................................................................................................................................................................................................................
(PID.TID 0000.0001)     13 ....................................................................................................................................................................................................................................
(PID.TID 0000.0001)     12 ....................................................................................................................................................................................................................................
(PID.TID 0000.0001)     11 ....................................................................................................................................................................................................................................
(PID.TID 0000.0001)     10 ....................................................................................................................................................................................................................................
(PID.TID 0000.0001)      9 ....................................................................................................................................................................................................................................
(PID.TID 0000.0001)      8 ....................................................................................................................................................................................................................................
(PID.TID 0000.0001)      7 ....................................................................................................................................................................................................................................
(PID.TID 0000.0001)      6 ....................................................................................................................................................................................................................................
(PID.TID 0000.0001)      5 ....................................................................................................................................................................................................................................
(PID.TID 0000.0001)      4 ....................................................................................................................................................................................................................................
(PID.TID 0000.0001)      3 ....................................................................................................................................................................................................................................
(PID.TID 0000.0001)      2 ....................................................................................................................................................................................................................................
(PID.TID 0000.0001)      1 ....................................................................................................................................................................................................................................
(PID.TID 0000.0001)      0 ....................................................................................................................................................................................................................................
(PID.TID 0000.0001)     -1 ....................................................................................................................................................................................................................................
(PID.TID 0000.0001)     -2 ....................................................................................................................................................................................................................................
(PID.TID 0000.0001) // =======================================================
(PID.TID 0000.0001) // END OF FIELD                                          =
(PID.TID 0000.0001) // =======================================================
(PID.TID 0000.0001) 
(PID.TID 0000.0001) // =======================================================
(PID.TID 0000.0001) // Begin MONITOR dynamic field statistics
(PID.TID 0000.0001) // =======================================================
(PID.TID 0000.0001) %MON time_tsnumber                =                   270
(PID.TID 0000.0001) %MON time_secondsf                =   9.7200000000000E+05
(PID.TID 0000.0001) %MON time_secondsi                =                972000
(PID.TID 0000.0001) %MON dynstat_eta_max              =   0.0000000000000E+00
(PID.TID 0000.0001) %MON dynstat_eta_min              =   0.0000000000000E+00
(PID.TID 0000.0001) %MON dynstat_eta_mean             =   0.0000000000000E+00
(PID.TID 0000.0001) %MON dynstat_eta_sd               =   0.0000000000000E+00
(PID.TID 0000.0001) %MON dynstat_eta_del2             =   0.0000000000000E+00
(PID.TID 0000.0001) %MON dynstat_uvel_max             =   3.8588909729170E+01
(PID.TID 0000.0001) %MON dynstat_uvel_min             =  -2.6640751857540E+01
(PID.TID 0000.0001) %MON dynstat_uvel_mean            =   1.1767582051515E+01
(PID.TID 0000.0001) %MON dynstat_uvel_sd              =   1.8925013763619E+01
(PID.TID 0000.0001) %MON dynstat_uvel_del2            =   3.3977035061841E-02
(PID.TID 0000.0001) %MON dynstat_vvel_max             =   3.8588909729170E+01
(PID.TID 0000.0001) %MON dynstat_vvel_min             =  -2.6640751857540E+01
(PID.TID 0000.0001) %MON dynstat_vvel_mean            =   1.1767582051515E+01
(PID.TID 0000.0001) %MON dynstat_vvel_sd              =   1.8925013763619E+01
(PID.TID 0000.0001) %MON dynstat_vvel_del2            =   3.3977035061841E-02
(PID.TID 0000.0001) %MON dynstat_wvel_max             =   4.8259469367879E-15
(PID.TID 0000.0001) %MON dynstat_wvel_min             =  -4.8259469367879E-15
(PID.TID 0000.0001) %MON dynstat_wvel_mean            =  -2.6408038640800E-34
(PID.TID 0000.0001) %MON dynstat_wvel_sd              =   1.3451301434752E-15
(PID.TID 0000.0001) %MON dynstat_wvel_del2            =   1.3733452540939E-15
(PID.TID 0000.0001) %MON dynstat_theta_max            =   1.7796633237996E+00
(PID.TID 0000.0001) %MON dynstat_theta_min            =   9.9990759826218E-01
(PID.TID 0000.0001) %MON dynstat_theta_mean           =   1.0066874826115E+00
(PID.TID 0000.0001) %MON dynstat_theta_sd             =   5.5057338367009E-02
(PID.TID 0000.0001) %MON dynstat_theta_del2           =   3.6604165311987E-04
(PID.TID 0000.0001) %MON dynstat_salt_max             =   1.8242561637476E+00
(PID.TID 0000.0001) %MON dynstat_salt_min             =   9.9972808959880E-01
(PID.TID 0000.0001) %MON dynstat_salt_mean            =   1.0069778541052E+00
(PID.TID 0000.0001) %MON dynstat_salt_sd              =   5.8112503712730E-02
(PID.TID 0000.0001) %MON dynstat_salt_del2            =   3.9693327215405E-04
(PID.TID 0000.0001) %MON advcfl_uvel_max              =   1.0218201555446E+00
(PID.TID 0000.0001) %MON advcfl_vvel_max              =   1.0218201555446E+00
(PID.TID 0000.0001) %MON advcfl_wvel_max              =   3.4746817944873E-16
(PID.TID 0000.0001) %MON advcfl_W_hf_max              =   0.0000000000000E+00
(PID.TID 0000.0001) %MON ke_max                       =   7.4455150023606E+02
(PID.TID 0000.0001) %MON ke_mean                      =   4.9661803126781E+02
(PID.TID 0000.0001) %MON ke_volint                    =   2.5323489810542E+22
(PID.TID 0000.0001) %MON ke_volmean                   =   4.9663214534537E+02
(PID.TID 0000.0001) // =======================================================
(PID.TID 0000.0001) // End MONITOR dynamic field statistics
(PID.TID 0000.0001) // =======================================================
(PID.TID 0000.0001) // =======================================================
(PID.TID 0000.0001) // Begin MONITOR dynamic field statistics
(PID.TID 0000.0001) // =======================================================
(PID.TID 0000.0001) %MON time_tsnumber                =                   276
(PID.TID 0000.0001) %MON time_secondsf                =   9.9360000000000E+05
(PID.TID 0000.0001) %MON time_secondsi                =                993600
(PID.TID 0000.0001) %MON dynstat_eta_max              =   0.0000000000000E+00
(PID.TID 0000.0001) %MON dynstat_eta_min              =   0.0000000000000E+00
(PID.TID 0000.0001) %MON dynstat_eta_mean             =   0.0000000000000E+00
(PID.TID 0000.0001) %MON dynstat_eta_sd               =   0.0000000000000E+00
(PID.TID 0000.0001) %MON dynstat_eta_del2             =   0.0000000000000E+00
(PID.TID 0000.0001) %MON dynstat_uvel_max             =   3.8588909729170E+01
(PID.TID 0000.0001) %MON dynstat_uvel_min             =  -2.6640751857540E+01
(PID.TID 0000.0001) %MON dynstat_uvel_mean            =   1.1767582051515E+01
(PID.TID 0000.0001) %MON dynstat_uvel_sd              =   1.8925013763619E+01
(PID.TID 0000.0001) %MON dynstat_uvel_del2            =   3.3977035061841E-02
(PID.TID 0000.0001) %MON dynstat_vvel_max             =   3.8588909729170E+01
(PID.TID 0000.0001) %MON dynstat_vvel_min             =  -2.6640751857540E+01
(PID.TID 0000.0001) %MON dynstat_vvel_mean            =   1.1767582051515E+01
(PID.TID 0000.0001) %MON dynstat_vvel_sd              =   1.8925013763619E+01
(PID.TID 0000.0001) %MON dynstat_vvel_del2            =   3.3977035061841E-02
(PID.TID 0000.0001) %MON dynstat_wvel_max             =   4.8259469367879E-15
(PID.TID 0000.0001) %MON dynstat_wvel_min             =  -4.8259469367879E-15
(PID.TID 0000.0001) %MON dynstat_wvel_mean            =  -2.6408038640800E-34
(PID.TID 0000.0001) %MON dynstat_wvel_sd              =   1.3451301434752E-15
(PID.TID 0000.0001) %MON dynstat_wvel_del2            =   1.3733452540939E-15
(PID.TID 0000.0001) %MON dynstat_theta_max            =   1.7754507202822E+00
(PID.TID 0000.0001) %MON dynstat_theta_min            =   9.9990087016684E-01
(PID.TID 0000.0001) %MON dynstat_theta_mean           =   1.0066874826115E+00
(PID.TID 0000.0001) %MON dynstat_theta_sd             =   5.4959549796594E-02
(PID.TID 0000.0001) %MON dynstat_theta_del2           =   3.6502103359791E-04
(PID.TID 0000.0001) %MON dynstat_salt_max             =   1.8215888657709E+00
(PID.TID 0000.0001) %MON dynstat_salt_min             =   9.9946641821293E-01
(PID.TID 0000.0001) %MON dynstat_salt_mean            =   1.0069616547876E+00
(PID.TID 0000.0001) %MON dynstat_salt_sd              =   5.7954307276485E-02
(PID.TID 0000.0001) %MON dynstat_salt_del2            =   3.8954299907621E-04
(PID.TID 0000.0001) %MON advcfl_uvel_max              =   1.0218201555446E+00
(PID.TID 0000.0001) %MON advcfl_vvel_max              =   1.0218201555446E+00
(PID.TID 0000.0001) %MON advcfl_wvel_max              =   3.4746817944873E-16
(PID.TID 0000.0001) %MON advcfl_W_hf_max              =   0.0000000000000E+00
(PID.TID 0000.0001) %MON ke_max                       =   7.4455150023606E+02
(PID.TID 0000.0001) %MON ke_mean                      =   4.9661803126781E+02
(PID.TID 0000.0001) %MON ke_volint                    =   2.5323489810542E+22
(PID.TID 0000.0001) %MON ke_volmean                   =   4.9663214534537E+02
(PID.TID 0000.0001) // =======================================================
(PID.TID 0000.0001) // End MONITOR dynamic field statistics
(PID.TID 0000.0001) // =======================================================
(PID.TID 0000.0001) // =======================================================
(PID.TID 0000.0001) // Begin MONITOR dynamic field statistics
(PID.TID 0000.0001) // =======================================================
(PID.TID 0000.0001) %MON time_tsnumber                =                   282
(PID.TID 0000.0001) %MON time_secondsf                =   1.0152000000000E+06
(PID.TID 0000.0001) %MON time_secondsi                =               1015200
(PID.TID 0000.0001) %MON dynstat_eta_max              =   0.0000000000000E+00
(PID.TID 0000.0001) %MON dynstat_eta_min              =   0.0000000000000E+00
(PID.TID 0000.0001) %MON dynstat_eta_mean             =   0.0000000000000E+00
(PID.TID 0000.0001) %MON dynstat_eta_sd               =   0.0000000000000E+00
(PID.TID 0000.0001) %MON dynstat_eta_del2             =   0.0000000000000E+00
(PID.TID 0000.0001) %MON dynstat_uvel_max             =   3.8588909729170E+01
(PID.TID 0000.0001) %MON dynstat_uvel_min             =  -2.6640751857540E+01
(PID.TID 0000.0001) %MON dynstat_uvel_mean            =   1.1767582051515E+01
(PID.TID 0000.0001) %MON dynstat_uvel_sd              =   1.8925013763619E+01
(PID.TID 0000.0001) %MON dynstat_uvel_del2            =   3.3977035061841E-02
(PID.TID 0000.0001) %MON dynstat_vvel_max             =   3.8588909729170E+01
(PID.TID 0000.0001) %MON dynstat_vvel_min             =  -2.6640751857540E+01
(PID.TID 0000.0001) %MON dynstat_vvel_mean            =   1.1767582051515E+01
(PID.TID 0000.0001) %MON dynstat_vvel_sd              =   1.8925013763619E+01
(PID.TID 0000.0001) %MON dynstat_vvel_del2            =   3.3977035061841E-02
(PID.TID 0000.0001) %MON dynstat_wvel_max             =   4.8259469367879E-15
(PID.TID 0000.0001) %MON dynstat_wvel_min             =  -4.8259469367879E-15
(PID.TID 0000.0001) %MON dynstat_wvel_mean            =  -2.6408038640800E-34
(PID.TID 0000.0001) %MON dynstat_wvel_sd              =   1.3451301434752E-15
(PID.TID 0000.0001) %MON dynstat_wvel_del2            =   1.3733452540939E-15
(PID.TID 0000.0001) %MON dynstat_theta_max            =   1.7719139760547E+00
(PID.TID 0000.0001) %MON dynstat_theta_min            =   9.9986756583683E-01
(PID.TID 0000.0001) %MON dynstat_theta_mean           =   1.0066874826115E+00
(PID.TID 0000.0001) %MON dynstat_theta_sd             =   5.4860996034874E-02
(PID.TID 0000.0001) %MON dynstat_theta_del2           =   3.6527849778059E-04
(PID.TID 0000.0001) %MON dynstat_salt_max             =   1.8202476424351E+00
(PID.TID 0000.0001) %MON dynstat_salt_min             =   9.9943912373478E-01
(PID.TID 0000.0001) %MON dynstat_salt_mean            =   1.0069471358545E+00
(PID.TID 0000.0001) %MON dynstat_salt_sd              =   5.7809750829027E-02
(PID.TID 0000.0001) %MON dynstat_salt_del2            =   3.9067232343735E-04
(PID.TID 0000.0001) %MON advcfl_uvel_max              =   1.0218201555446E+00
(PID.TID 0000.0001) %MON advcfl_vvel_max              =   1.0218201555446E+00
(PID.TID 0000.0001) %MON advcfl_wvel_max              =   3.4746817944873E-16
(PID.TID 0000.0001) %MON advcfl_W_hf_max              =   0.0000000000000E+00
(PID.TID 0000.0001) %MON ke_max                       =   7.4455150023606E+02
(PID.TID 0000.0001) %MON ke_mean                      =   4.9661803126781E+02
(PID.TID 0000.0001) %MON ke_volint                    =   2.5323489810542E+22
(PID.TID 0000.0001) %MON ke_volmean                   =   4.9663214534537E+02
(PID.TID 0000.0001) // =======================================================
(PID.TID 0000.0001) // End MONITOR dynamic field statistics
(PID.TID 0000.0001) // =======================================================
(PID.TID 0000.0001) // =======================================================
(PID.TID 0000.0001) // Begin MONITOR dynamic field statistics
(PID.TID 0000.0001) // =======================================================
(PID.TID 0000.0001) %MON time_tsnumber                =                   288
(PID.TID 0000.0001) %MON time_secondsf                =   1.0368000000000E+06
(PID.TID 0000.0001) %MON time_secondsi                =               1036800
(PID.TID 0000.0001) %MON dynstat_eta_max              =   0.0000000000000E+00
(PID.TID 0000.0001) %MON dynstat_eta_min              =   0.0000000000000E+00
(PID.TID 0000.0001) %MON dynstat_eta_mean             =   0.0000000000000E+00
(PID.TID 0000.0001) %MON dynstat_eta_sd               =   0.0000000000000E+00
(PID.TID 0000.0001) %MON dynstat_eta_del2             =   0.0000000000000E+00
(PID.TID 0000.0001) %MON dynstat_uvel_max             =   3.8588909729170E+01
(PID.TID 0000.0001) %MON dynstat_uvel_min             =  -2.6640751857540E+01
(PID.TID 0000.0001) %MON dynstat_uvel_mean            =   1.1767582051515E+01
(PID.TID 0000.0001) %MON dynstat_uvel_sd              =   1.8925013763619E+01
(PID.TID 0000.0001) %MON dynstat_uvel_del2            =   3.3977035061841E-02
(PID.TID 0000.0001) %MON dynstat_vvel_max             =   3.8588909729170E+01
(PID.TID 0000.0001) %MON dynstat_vvel_min             =  -2.6640751857540E+01
(PID.TID 0000.0001) %MON dynstat_vvel_mean            =   1.1767582051515E+01
(PID.TID 0000.0001) %MON dynstat_vvel_sd              =   1.8925013763619E+01
(PID.TID 0000.0001) %MON dynstat_vvel_del2            =   3.3977035061841E-02
(PID.TID 0000.0001) %MON dynstat_wvel_max             =   4.8259469367879E-15
(PID.TID 0000.0001) %MON dynstat_wvel_min             =  -4.8259469367879E-15
(PID.TID 0000.0001) %MON dynstat_wvel_mean            =  -2.6408038640800E-34
(PID.TID 0000.0001) %MON dynstat_wvel_sd              =   1.3451301434752E-15
(PID.TID 0000.0001) %MON dynstat_wvel_del2            =   1.3733452540939E-15
(PID.TID 0000.0001) %MON dynstat_theta_max            =   1.7688941046789E+00
(PID.TID 0000.0001) %MON dynstat_theta_min            =   9.9983612647062E-01
(PID.TID 0000.0001) %MON dynstat_theta_mean           =   1.0066874826115E+00
(PID.TID 0000.0001) %MON dynstat_theta_sd             =   5.4764641117047E-02
(PID.TID 0000.0001) %MON dynstat_theta_del2           =   3.6215962781338E-04
(PID.TID 0000.0001) %MON dynstat_salt_max             =   1.8164210444539E+00
(PID.TID 0000.0001) %MON dynstat_salt_min             =   9.9947224665539E-01
(PID.TID 0000.0001) %MON dynstat_salt_mean            =   1.0069338604354E+00
(PID.TID 0000.0001) %MON dynstat_salt_sd              =   5.7674671128412E-02
(PID.TID 0000.0001) %MON dynstat_salt_del2            =   3.9201998606810E-04
(PID.TID 0000.0001) %MON advcfl_uvel_max              =   1.0218201555446E+00
(PID.TID 0000.0001) %MON advcfl_vvel_max              =   1.0218201555446E+00
(PID.TID 0000.0001) %MON advcfl_wvel_max              =   3.4746817944873E-16
(PID.TID 0000.0001) %MON advcfl_W_hf_max              =   0.0000000000000E+00
(PID.TID 0000.0001) %MON ke_max                       =   7.4455150023606E+02
(PID.TID 0000.0001) %MON ke_mean                      =   4.9661803126781E+02
(PID.TID 0000.0001) %MON ke_volint                    =   2.5323489810542E+22
(PID.TID 0000.0001) %MON ke_volmean                   =   4.9663214534537E+02
(PID.TID 0000.0001) // =======================================================
(PID.TID 0000.0001) // End MONITOR dynamic field statistics
(PID.TID 0000.0001) // =======================================================
(PID.TID 0000.0001) // =======================================================
(PID.TID 0000.0001) // Field Current uVel   at iteration        288
(PID.TID 0000.0001) // CMIN =         -2.664075185753955E+01
(PID.TID 0000.0001) // CMAX =          3.858890972916976E+01
(PID.TID 0000.0001) // CINT =          2.415913392100345E+00
(PID.TID 0000.0001) // SYMBOLS (CMIN->CMAX): -abcdefghijklmnopqrstuvwxyz+
(PID.TID 0000.0001) //                  0.0: .
(PID.TID 0000.0001) // RANGE I (Lo:Hi:Step):(   1: 192:   1)
(PID.TID 0000.0001) // RANGE J (Lo:Hi:Step):(  32:   1:  -1)
(PID.TID 0000.0001) // RANGE K (Lo:Hi:Step):(   1:   1:   1)
(PID.TID 0000.0001) // =======================================================
(PID.TID 0000.0001) K =   1
(PID.TID 0000.0001)                I=10      I=20      I=30      I=40      I=50      I=60      I=70      I=80      I=90      I=100     I=110     I=120     I=130     I=140     I=150     I=160     I=170     I=180     I=190
(PID.TID 0000.0001) |--J--|123456789|123456789|123456789|123456789|123456789|123456789|123456789|123456789|123456789|123456789|123456789|123456789|123456789|123456789|123456789|123456789|123456789|123456789|123456789|12
(PID.TID 0000.0001)     32 xwwwwwwwwwwwwwwwwwwwwwwwwwwwwwwwxwwwwwwwwwwwwwwwwwwwwwwwwwwwwwwwea-----------------------------aeijjkkkkkkkkkkkk.kkkkkkkkkkkkllmeijjkkkkkkkkkkkk.kkkkkkkkkkkkllmquvvvvvvvvvvvvvvvvvvvvvvvvvvvvvu
(PID.TID 0000.0001)     31 xxxxwwwwwwwwwwwwwwwwwwwwwwwwwxxxxxxxwwwwwwwwwwwwwwwwwwwwwwwwwxxxecbaaaaaaaaaaaaaaaaaaaaaaaaaaabcegiijjjjkkkkkkkk.kkkkkkkkllllmmoegiijjjjkkkkkkkk.kkkkkkkkllllmmoqstuuuuuuuuuuuuuuuuuuuuuuuuuuuts
(PID.TID 0000.0001)     30 yxxxxxxxxxxxxxxxxxxxxxxxxxxxxxxxyxxxxxxxxxxxxxxxxxxxxxxxxxxxxxxxedcbbbaaaaaaaaaaaaaaaaaaaaabbbcdeghiijjjjjkkkkkk.kkkkkklllllmmnpeghiijjjjjkkkkkk.kkkkkklllllmmnpqrstttuuuuuuuuuuuuuuuuuuuuutttsr
(PID.TID 0000.0001)     29 yyyyxxxxxxxxxxxxxxxxxxxxxxxxxyyyyyyyxxxxxxxxxxxxxxxxxxxxxxxxxyyyeddccbbbbbbbbbbbbbbbbbbbbbbbccddefghiijjjjjkkkkk.kkkkklllllmmnopefghiijjjjjkkkkk.kkkkklllllmmnopqrssstttttttttttttttttttttttsssr
(PID.TID 0000.0001)     28 yyyyyyyyyyyxxxxxxxxxxxyyyyyyyyyyyyyyyyyyyyyxxxxxxxxxxxyyyyyyyyyyfeddccccccbbbbbbbbbbbbbccccccddeffghiiijjjjjkkkk.kkkklllllmmnnopffghiiijjjjjkkkk.kkkklllllmmnnoppqrrssssstttttttttttttttsssssrrq
(PID.TID 0000.0001)     27 yyyyyyyyyyyyyyyyyyyyyyyyyyyyyyyyyyyyyyyyyyyyyyyyyyyyyyyyyyyyyyyyfeeddddcccccccccccccccccccddddeefgghhiijjjjjkkkk.kkkklllllmmnnoofgghhiijjjjjkkkk.kkkklllllmmnnoopqqrrrsssssssssssssssssssssrrrqq
(PID.TID 0000.0001)     26 zzzzyyyyyyyyyyyyyyyyyyyyyyyyyzzzzzzzyyyyyyyyyyyyyyyyyyyyyyyyyzzzffeeedddddddddddddddddddddddeeeffgghhiijjjjjkkkk.kkklllllmmmnnoofgghhiijjjjjkkkk.kkklllllmmmnnooppqqqrrrrrrrrrrrrrrrrrrrrrrrqqqp
(PID.TID 0000.0001)     25 zzzzzzzzzzzzzzzzzzzzzzzzzzzzzzzzzzzzzzzzzzzzzzzzzzzzzzzzzzzzzzzzgfffeeeeeeeedddddddddeeeeeeeefffgghhiiijjjjjkkkk.kkklllllmmmnnnogghhiiijjjjjkkkk.kkklllllmmmnnnoopppqqqqqqrrrrrrrrrrrrrqqqqqqppp
(PID.TID 0000.0001)     24 zzzzzzzzzzzzzzzzzzzzzzzzzzzzzzzzzzzzzzzzzzzzzzzzzzzzzzzzzzzzzzzzgggfffffeeeeeeeeeeeeeeeeefffffggghhhiiijjjjjkkkk.kkkllllllmmmnnnghhhiiijjjjjkkkk.kkkllllllmmmnnnoopppppqqqqqqqqqqqqqqqqqqqpppppo
(PID.TID 0000.0001)     23 zzzzzzzzzzzzzzzzzzzzzzzzzzzzzzzzzzzzzzzzzzzzzzzzzzzzzzzzzzzzzzzzhggggfffffffffffffffffffffffgggghhhiiiijjjjjkkkk.kkkklllllmmmmnnhhhiiiijjjjjkkkk.kkkklllllmmmmnnnoooopppppppppppppppppppppppoooo
(PID.TID 0000.0001)     22 zzzzzzzzzzzzzzzzzzzzzzzzzzzzzzzzzzzzzzzzzzzzzzzzzzzzzzzzzzzzzzzzhhhhggggggggggggggggggggggggghhhhhiiiijjjjjjkkkk.kkkkllllllmmmmnhhiiiijjjjjjkkkk.kkkkllllllmmmmnnnnooooooooooooooooooooooooooonn
(PID.TID 0000.0001)     21 ++++++++++++++++++++++++++++++++++++++++++++++++++++++++++++++++ihhhhhhhhhhggggggggggghhhhhhhhhhiiiiijjjjjjkkkkk.kkkkkllllllmmmmiiiiijjjjjjkkkkk.kkkkkllllllmmmmmnnnnnnnnnooooooooooooonnnnnnnnn
(PID.TID 0000.0001)     20 ++++++++++++++++++++++++++++++++++++++++++++++++++++++++++++++++iiiiiihhhhhhhhhhhhhhhhhhhhhiiiiiiiijjjjjjjkkkkkk.kkkkkklllllllmmiiijjjjjjjkkkkkk.kkkkkklllllllmmmmmmmmnnnnnnnnnnnnnnnnnnnnnmmmmm
(PID.TID 0000.0001)     19 ++++++++++++++++++++++++++++++++++++++++++++++++++++++++++++++++jjiiiiiiiiiiiiiiiiiiiiiiiiiiiiijjjjjjjjjkkkkkkkk.kkkkkkklllllllljjjjjjjjkkkkkkkk.kkkkkkkllllllllllmmmmmmmmmmmmmmmmmmmmmmmmmmmmml
(PID.TID 0000.0001)     18 ++++++++++++++++++++++++++++++++++++++++++++++++++++++++++++++++jjjjjjjjjjjjjjjjjjjjjjjjjjjjjjjjjjjjjkkkkkkkkkkk.kkkkkkkkkkklllljjjjjkkkkkkkkkkk.kkkkkkkkkkkllllllllllllllllllllllllllllllllllll
(PID.TID 0000.0001)     17 ++++++++++++++++++++++++++++++++++++++++++++++++++++++++++++++++kkkkkkkkkkkkkkkkkkkkkkkkkkkkkkkkkkkkkkkkkkkkkkkk.kkkkkkkkkkkkkkkkkkkkkkkkkkkkkkk.kkkkkkkkkkkkkkkkkkkkkkkkkkkkkkkkkkkkkkkkkkkkkkk
(PID.TID 0000.0001)     16 ++++++++++++++++++++++++++++++++++++++++++++++++++++++++++++++++kkkkkkkkkkkkkkkkkkkkkkkkkkkkkkkkkkkkkkkkkkkkkkkk.kkkkkkkkkkkkkkkkkkkkkkkkkkkkkkk.kkkkkkkkkkkkkkkkkkkkkkkkkkkkkkkkkkkkkkkkkkkkkkk
(PID.TID 0000.0001)     15 ++++++++++++++++++++++++++++++++++++++++++++++++++++++++++++++++lllllllllllllllllllllllllllllllllllllkkkkkkkkkkk.kkkkkkkkkkkjjjjlllllkkkkkkkkkkk.kkkkkkkkkkkjjjjjjjjjjjjjjjjjjjjjjjjjjjjjjjjjjjj
(PID.TID 0000.0001)     14 ++++++++++++++++++++++++++++++++++++++++++++++++++++++++++++++++llmmmmmmmmmmmmmmmmmmmmmmmmmmmmmllllllllllkkkkkkk.kkkkkkkkjjjjjjjlllllllllkkkkkkk.kkkkkkkkjjjjjjjjjiiiiiiiiiiiiiiiiiiiiiiiiiiiiij
(PID.TID 0000.0001)     13 ++++++++++++++++++++++++++++++++++++++++++++++++++++++++++++++++mmmmmmnnnnnnnnnnnnnnnnnnnnnmmmmmmmmlllllllkkkkkk.kkkkkkjjjjjjjiimmmlllllllkkkkkk.kkkkkkjjjjjjjiiiiiiiihhhhhhhhhhhhhhhhhhhhhiiiii
(PID.TID 0000.0001)     12 ++++++++++++++++++++++++++++++++++++++++++++++++++++++++++++++++mnnnnnnnnnooooooooooooonnnnnnnnnmmmmmllllllkkkkk.kkkkkjjjjjjiiiimmmmmllllllkkkkk.kkkkkjjjjjjiiiiihhhhhhhhhhggggggggggghhhhhhhhhh
(PID.TID 0000.0001)     11 zzzzzzzzzzzzzzzzzzzzzzzzzzzzzzzzzzzzzzzzzzzzzzzzzzzzzzzzzzzzzzzznnnooooooooooooooooooooooooooonnnnmmmmllllllkkkk.kkkkjjjjjjiiiihnnmmmmllllllkkkk.kkkkjjjjjjiiiihhhhhggggggggggggggggggggggggghhh
(PID.TID 0000.0001)     10 zzzzzzzzzzzzzzzzzzzzzzzzzzzzzzzzzzzzzzzzzzzzzzzzzzzzzzzzzzzzzzzznoooopppppppppppppppppppppppoooonnnmmmmlllllkkkk.kkkkjjjjjiiiihhnnnmmmmlllllkkkk.kkkkjjjjjiiiihhhggggfffffffffffffffffffffffgggg
(PID.TID 0000.0001)      9 zzzzzzzzzzzzzzzzzzzzzzzzzzzzzzzzzzzzzzzzzzzzzzzzzzzzzzzzzzzzzzzzoopppppqqqqqqqqqqqqqqqqqqqpppppoonnnmmmllllllkkk.kkkkjjjjjiiihhhonnnmmmllllllkkk.kkkkjjjjjiiihhhgggfffffeeeeeeeeeeeeeeeeefffffgg
(PID.TID 0000.0001)      8 zzzzzzzzzzzzzzzzzzzzzzzzzzzzzzzzzzzzzzzzzzzzzzzzzzzzzzzzzzzzzzzzopppqqqqqqrrrrrrrrrrrrrqqqqqqpppoonnnmmmlllllkkk.kkkkjjjjjiiihhgoonnnmmmlllllkkk.kkkkjjjjjiiihhggfffeeeeeeeedddddddddeeeeeeeefff
(PID.TID 0000.0001)      7 zzzzyyyyyyyyyyyyyyyyyyyyyyyyyzzzzzzzyyyyyyyyyyyyyyyyyyyyyyyyyzzzppqqqrrrrrrrrrrrrrrrrrrrrrrrqqqppoonnmmmlllllkkk.kkkkjjjjjiihhggpoonnmmmlllllkkk.kkkkjjjjjiihhggffeeedddddddddddddddddddddddeeef
(PID.TID 0000.0001)      6 yyyyyyyyyyyyyyyyyyyyyyyyyyyyyyyyyyyyyyyyyyyyyyyyyyyyyyyyyyyyyyyypqqrrrsssssssssssssssssssssrrrqqpoonnmmlllllkkkk.kkkkjjjjjiihhggpoonnmmlllllkkkk.kkkkjjjjjiihhggfeeddddcccccccccccccccccccddddee
(PID.TID 0000.0001)      5 yyyyyyyyyyyxxxxxxxxxxxyyyyyyyyyyyyyyyyyyyyyxxxxxxxxxxxyyyyyyyyyypqrrssssstttttttttttttttsssssrrqpponnmmlllllkkkk.kkkkjjjjjiiihgfpponnmmlllllkkkk.kkkkjjjjjiiihgffeddccccccbbbbbbbbbbbbbccccccdde
(PID.TID 0000.0001)      4 yyyyxxxxxxxxxxxxxxxxxxxxxxxxxyyyyyyyxxxxxxxxxxxxxxxxxxxxxxxxxyyyqrssstttttttttttttttttttttttsssrqponmmlllllkkkkk.kkkkkjjjjjiihgfqponmmlllllkkkkk.kkkkkjjjjjiihgfeddccbbbbbbbbbbbbbbbbbbbbbbbccdd
(PID.TID 0000.0001)      3 yxxxxxxxxxxxxxxxxxxxxxxxxxxxxxxxyxxxxxxxxxxxxxxxxxxxxxxxxxxxxxxxqrstttuuuuuuuuuuuuuuuuuuuuutttsrqpnmmlllllkkkkkk.kkkkkkjjjjjiihgqpnmmlllllkkkkkk.kkkkkkjjjjjiihgedcbbbaaaaaaaaaaaaaaaaaaaaabbbcd
(PID.TID 0000.0001)      2 xxxxwwwwwwwwwwwwwwwwwwwwwwwwwxxxxxxxwwwwwwwwwwwwwwwwwwwwwwwwwxxxqstuuuuuuuuuuuuuuuuuuuuuuuuuuutsqommllllkkkkkkkk.kkkkkkkkjjjjiigqommllllkkkkkkkk.kkkkkkkkjjjjiigecbaaaaaaaaaaaaaaaaaaaaaaaaaaabc
(PID.TID 0000.0001)      1 xwwwwwwwwwwwwwwwwwwwwwwwwwwwwwwwxwwwwwwwwwwwwwwwwwwwwwwwwwwwwwwwquvvvvvvvvvvvvvvvvvvvvvvvvvvvvvuqmllkkkkkkkkkkkk.kkkkkkkkkkkkjjiqmllkkkkkkkkkkkk.kkkkkkkkkkkkjjiea-----------------------------a
(PID.TID 0000.0001) // =======================================================
(PID.TID 0000.0001) // END OF FIELD                                          =
(PID.TID 0000.0001) // =======================================================
(PID.TID 0000.0001) 
(PID.TID 0000.0001) // =======================================================
(PID.TID 0000.0001) // Field Current vVel   at iteration        288
(PID.TID 0000.0001) // CMIN =         -2.664075185753955E+01
(PID.TID 0000.0001) // CMAX =          3.858890972916976E+01
(PID.TID 0000.0001) // CINT =          2.415913392100345E+00
(PID.TID 0000.0001) // SYMBOLS (CMIN->CMAX): -abcdefghijklmnopqrstuvwxyz+
(PID.TID 0000.0001) //                  0.0: .
(PID.TID 0000.0001) // RANGE I (Lo:Hi:Step):(   1: 192:   1)
(PID.TID 0000.0001) // RANGE J (Lo:Hi:Step):(  32:   1:  -1)
(PID.TID 0000.0001) // RANGE K (Lo:Hi:Step):(   1:   1:   1)
(PID.TID 0000.0001) // =======================================================
(PID.TID 0000.0001) K =   1
(PID.TID 0000.0001)                I=10      I=20      I=30      I=40      I=50      I=60      I=70      I=80      I=90      I=100     I=110     I=120     I=130     I=140     I=150     I=160     I=170     I=180     I=190
(PID.TID 0000.0001) |--J--|123456789|123456789|123456789|123456789|123456789|123456789|123456789|123456789|123456789|123456789|123456789|123456789|123456789|123456789|123456789|123456789|123456789|123456789|123456789|12
(PID.TID 0000.0001)     32 iggffggghhhiijjkkllmmnnnooopppomiggffggghhhiijjkkllmmnnnooopppomacddeeffgghhijjkkllmnnooppqqrrsuwxxyyyzzzzz++++++++++zzzzzyyyxxwwxxyyyzzzzz++++++++++zzzzzyyyxxwusrrqqppoonnmllkkjjihhggffeeddca
(PID.TID 0000.0001)     31 jihgggghhhiiijjkkllmmmnnnoooonmljihgggghhhiiijjkkllmmmnnnoooonml-bcddeefgghhiijkklmmnnoppqqrsstvwxxyyyzzzzz++++++++++zzzzzyyyxxwwxxyyyzzzzz++++++++++zzzzzyyyxxwvtssrqqpponnmmlkkjiihhggfeeddcb-
(PID.TID 0000.0001)     30 jiihhhhhhiiijjjkklllmmmnnnnnnmmljiihhhhhhiiijjjkklllmmmnnnnnnmml-abcddeffghhiijkklmmnooppqrrstuvwxxyyyzzzzz++++++++++zzzzzyyyxxwwxxyyyzzzzz++++++++++zzzzzyyyxxwvutsrrqppoonmmlkkjiihhgffeddcba-
(PID.TID 0000.0001)     29 kjiiihhiiiiijjjkklllmmmmnnnnmmlkkjiiihhiiiiijjjkklllmmmmnnnnmmlk-abccdeefgghiijkklmmnoopqqrsstuvwwxxyyyzzzz++++++++++zzzzyyyxxwwwwxxyyyzzzz++++++++++zzzzyyyxxwwvutssrqqpoonmmlkkjiihggfeedccba-
(PID.TID 0000.0001)     28 kjjiiiiiiiijjjkkkklllmmmmmmmmllkkjjiiiiiiiijjjkkkklllmmmmmmmmllk-abbcddeffghiijkklmmnoppqrrsttuvwwxxyyyzzzz++++++++++zzzzyyyxxwwwwxxyyyzzzz++++++++++zzzzyyyxxwwvuttsrrqpponmmlkkjiihgffeddcbba-
(PID.TID 0000.0001)     27 kjjjiiiiiijjjjkkkkllllmmmmmmlllkkjjjiiiiiijjjjkkkkllllmmmmmmlllk-aabcddeffghhijkklmnnoppqrsstuuvwwxxyyyzzzz++++++++++zzzzyyyxxwwwwxxyyyzzzz++++++++++zzzzyyyxxwwvuutssrqpponnmlkkjihhgffeddcbaa-
(PID.TID 0000.0001)     26 kjjjjjjjjjjjjjkkkkllllllmmlllllkkjjjjjjjjjjjjjkkkkllllllmmlllllk-aabccdeffghhijkklmnnopqqrsstuuvwwxxyyyzzzz++++++++++zzzzyyyxxwwwwxxyyyzzzz++++++++++zzzzyyyxxwwvuutssrqqponnmlkkjihhgffedccbaa-
(PID.TID 0000.0001)     25 kkjjjjjjjjjjjkkkkkllllllllllllkkkkjjjjjjjjjjjkkkkkllllllllllllkk-aabccdeefghhijkklmnnopqqrsstuuvwwxxyyyzzzz++++++++++zzzzyyyxxwwwwxxyyyzzzz++++++++++zzzzyyyxxwwvuutssrqqponnmlkkjihhgfeedccbaa-
(PID.TID 0000.0001)     24 kkjjjjjjjjjjjkkkkkklllllllllllkkkkjjjjjjjjjjjkkkkkklllllllllllkk-aabccdeefghhijkklmnnopqqrsttuuvwwxxyyyzzzz++++++++++zzzzyyyxxwwwwxxyyyzzzz++++++++++zzzzyyyxxwwvuuttsrqqponnmlkkjihhgfeedccbaa-
(PID.TID 0000.0001)     23 kkkjjjjjjjjjkkkkkkkklllllllllkkkkkkjjjjjjjjjkkkkkkkklllllllllkkk-aabbcdeefghhijkklmnoopqrrsttuuvwwxxyyyzzzz++++++++++zzzzyyyxxwwwwxxyyyzzzz++++++++++zzzzyyyxxwwvuuttsrrqpoonmlkkjihhgfeedcbbaa-
(PID.TID 0000.0001)     22 kkkkjjjjjjjkkkkkkkkkklllllllkkkkkkkkjjjjjjjkkkkkkkkkklllllllkkkk-aabbcdeefgghijkklmnoopqrrsttuuvwwxxxyyzzzz++++++++++zzzzyyxxxwwwwxxxyyzzzz++++++++++zzzzyyxxxwwvuuttsrrqpoonmlkkjihggfeedcbbaa-
(PID.TID 0000.0001)     21 kkkkkkkkkkkkkkkkkkkkkkklllkkkkkkkkkkkkkkkkkkkkkkkkkkkkklllkkkkkk-aabbcddefgghijkklmnoopqrrsttuuvwwxxxyyzzzz++++++++++zzzzyyxxxwwwwxxxyyzzzz++++++++++zzzzyyxxxwwvuuttsrrqpoonmlkkjihggfeddcbbaa-
(PID.TID 0000.0001)     20 kkkkkkkkkkkkkkkkkkkkkkkkkkkkkkkkkkkkkkkkkkkkkkkkkkkkkkkkkkkkkkkk-aabbcddefgghijkklmnoopqrrsttuuvwwxxxyyzzzz++++++++++zzzzyyxxxwwwwxxxyyzzzz++++++++++zzzzyyxxxwwvuuttsrrqpoonmlkkjihggfeddcbbaa-
(PID.TID 0000.0001)     19 kkkkkkkkkkkkkkkkkkkkkkkkkkkkkkkkkkkkkkkkkkkkkkkkkkkkkkkkkkkkkkkk-aabbcddefgghijkklmnoopqrrsttuuvwwxxxyyzzzz++++++++++zzzzyyxxxwwwwxxxyyzzzz++++++++++zzzzyyxxxwwvuuttsrrqpoonmlkkjihggfeddcbbaa-
(PID.TID 0000.0001)     18 kkkkkkkkkkkkkkkkkkkkkkkkkkkkkkkkkkkkkkkkkkkkkkkkkkkkkkkkkkkkkkkk-aabbcddefgghijkklmnoopqrrsttuuvwwxxxyyzzzz++++++++++zzzzyyxxxwwwwxxxyyzzzz++++++++++zzzzyyxxxwwvuuttsrrqpoonmlkkjihggfeddcbbaa-
(PID.TID 0000.0001)     17 ................................................................-aabbcddefgghijkklmnoopqrrsttuuvwwxxxyyzzzz++++++++++zzzzyyxxxwwwwxxxyyzzzz++++++++++zzzzyyxxxwwvuuttsrrqpoonmlkkjihggfeddcbbaa-
(PID.TID 0000.0001)     16 kkkkkkkkkkkkkkkkkkkkkkkkkkkkkkkkkkkkkkkkkkkkkkkkkkkkkkkkkkkkkkkk-aabbcddefgghijkklmnoopqrrsttuuvwwxxxyyzzzz++++++++++zzzzyyxxxwwwwxxxyyzzzz++++++++++zzzzyyxxxwwvuuttsrrqpoonmlkkjihggfeddcbbaa-
(PID.TID 0000.0001)     15 kkkkkkkkkkkkkkkkkkkkkkkkkkkkkkkkkkkkkkkkkkkkkkkkkkkkkkkkkkkkkkkk-aabbcddefgghijkklmnoopqrrsttuuvwwxxxyyzzzz++++++++++zzzzyyxxxwwwwxxxyyzzzz++++++++++zzzzyyxxxwwvuuttsrrqpoonmlkkjihggfeddcbbaa-
(PID.TID 0000.0001)     14 kkkkkkkkkkkkkkkkkkkkkkkkkkkkkkkkkkkkkkkkkkkkkkkkkkkkkkkkkkkkkkkk-aabbcddefgghijkklmnoopqrrsttuuvwwxxxyyzzzz++++++++++zzzzyyxxxwwwwxxxyyzzzz++++++++++zzzzyyxxxwwvuuttsrrqpoonmlkkjihggfeddcbbaa-
(PID.TID 0000.0001)     13 kkkkkklllkkkkkkkkkkkkkkkkkkkkkkkkkkkkklllkkkkkkkkkkkkkkkkkkkkkkk-aabbcddefgghijkklmnoopqrrsttuuvwwxxxyyzzzz++++++++++zzzzyyxxxwwwwxxxyyzzzz++++++++++zzzzyyxxxwwvuuttsrrqpoonmlkkjihggfeddcbbaa-
(PID.TID 0000.0001)     12 kkkklllllllkkkkkkkkkkjjjjjjjkkkkkkkklllllllkkkkkkkkkkjjjjjjjkkkk-aabbcdeefgghijkklmnoopqrrsttuuvwwxxxyyzzzz++++++++++zzzzyyxxxwwwwxxxyyzzzz++++++++++zzzzyyxxxwwvuuttsrrqpoonmlkkjihggfeedcbbaa-
(PID.TID 0000.0001)     11 kkklllllllllkkkkkkkkjjjjjjjjjkkkkkklllllllllkkkkkkkkjjjjjjjjjkkk-aabbcdeefghhijkklmnoopqrrsttuuvwwxxyyyzzzz++++++++++zzzzyyyxxwwwwxxyyyzzzz++++++++++zzzzyyyxxwwvuuttsrrqpoonmlkkjihhgfeedcbbaa-
(PID.TID 0000.0001)     10 kklllllllllllkkkkkkjjjjjjjjjjjkkkklllllllllllkkkkkkjjjjjjjjjjjkk-aabccdeefghhijkklmnnopqqrsttuuvwwxxyyyzzzz++++++++++zzzzyyyxxwwwwxxyyyzzzz++++++++++zzzzyyyxxwwvuuttsrqqponnmlkkjihhgfeedccbaa-
(PID.TID 0000.0001)      9 kkllllllllllllkkkkkjjjjjjjjjjjkkkkllllllllllllkkkkkjjjjjjjjjjjkk-aabccdeefghhijkklmnnopqqrsstuuvwwxxyyyzzzz++++++++++zzzzyyyxxwwwwxxyyyzzzz++++++++++zzzzyyyxxwwvuutssrqqponnmlkkjihhgfeedccbaa-
(PID.TID 0000.0001)      8 klllllmmllllllkkkkjjjjjjjjjjjjjkklllllmmllllllkkkkjjjjjjjjjjjjjk-aabccdeffghhijkklmnnopqqrsstuuvwwxxyyyzzzz++++++++++zzzzyyyxxwwwwxxyyyzzzz++++++++++zzzzyyyxxwwvuutssrqqponnmlkkjihhgffedccbaa-
(PID.TID 0000.0001)      7 klllmmmmmmllllkkkkjjjjiiiiiijjjkklllmmmmmmllllkkkkjjjjiiiiiijjjk-aabcddeffghhijkklmnnoppqrsstuuvwwxxyyyzzzz++++++++++zzzzyyyxxwwwwxxyyyzzzz++++++++++zzzzyyyxxwwvuutssrqpponnmlkkjihhgffeddcbaa-
(PID.TID 0000.0001)      6 kllmmmmmmmmlllkkkkjjjiiiiiiiijjkkllmmmmmmmmlllkkkkjjjiiiiiiiijjk-abbcddeffghiijkklmmnoppqrrsttuvwwxxyyyzzzz++++++++++zzzzyyyxxwwwwxxyyyzzzz++++++++++zzzzyyyxxwwvuttsrrqpponmmlkkjiihgffeddcbba-
(PID.TID 0000.0001)      5 klmmnnnnmmmmlllkkjjjiiiiihhiiijkklmmnnnnmmmmlllkkjjjiiiiihhiiijk-abccdeefgghiijkklmmnoopqqrsstuvwwxxyyyzzzz++++++++++zzzzyyyxxwwwwxxyyyzzzz++++++++++zzzzyyyxxwwvutssrqqpoonmmlkkjiihggfeedccba-
(PID.TID 0000.0001)      4 lmmnnnnnnmmmlllkkjjjiiihhhhhhiijlmmnnnnnnmmmlllkkjjjiiihhhhhhiij-abcddeffghhiijkklmmnooppqrrstuvwxxyyyzzzzz++++++++++zzzzzyyyxxwwxxyyyzzzzz++++++++++zzzzzyyyxxwvutsrrqppoonmmlkkjiihhgffeddcba-
(PID.TID 0000.0001)      3 lmnoooonnnmmmllkkjjiiihhhgggghijlmnoooonnnmmmllkkjjiiihhhgggghij-bcddeefgghhiijkklmmnnoppqqrsstvwxxyyyzzzzz++++++++++zzzzzyyyxxwwxxyyyzzzzz++++++++++zzzzzyyyxxwvtssrqqpponnmmlkkjiihhggfeeddcb-
(PID.TID 0000.0001)      2 mopppooonnnmmllkkjjiihhhgggffggimopppooonnnmmllkkjjiihhhgggffggiacddeeffgghhijjkkllmnnooppqqrrsuwxxyyyzzzzz++++++++++zzzzzyyyxxwwxxyyyzzzzz++++++++++zzzzzyyyxxwusrrqqppoonnmllkkjjihhggffeeddca
(PID.TID 0000.0001)      1 qqqqpppoonnmmllkkjjiihhggfffeeeeqqqqpppoonnmmllkkjjiihhggfffeeeeeeeefffgghhiijjkkllmmnnoopppqqqqxxyyyyzzzzz++++++++++zzzzzyyyyxxxxyyyyzzzzz++++++++++zzzzzyyyyxxqqqqpppoonnmmllkkjjiihhggfffeeee
(PID.TID 0000.0001) // =======================================================
(PID.TID 0000.0001) // END OF FIELD                                          =
(PID.TID 0000.0001) // =======================================================
(PID.TID 0000.0001) 
(PID.TID 0000.0001) // =======================================================
(PID.TID 0000.0001) // Field Current theta  at iteration        288
(PID.TID 0000.0001) // CMIN =          9.998361264706174E-01
(PID.TID 0000.0001) // CMAX =          1.768894104678866E+00
(PID.TID 0000.0001) // CINT =          2.848362882252773E-02
(PID.TID 0000.0001) // SYMBOLS (CMIN->CMAX): -abcdefghijklmnopqrstuvwxyz+
(PID.TID 0000.0001) //                  0.0: .
(PID.TID 0000.0001) // RANGE I (Lo:Hi:Step):(   1: 192:   1)
(PID.TID 0000.0001) // RANGE J (Lo:Hi:Step):(  32:   1:  -1)
(PID.TID 0000.0001) // RANGE K (Lo:Hi:Step):(   1:   1:   1)
(PID.TID 0000.0001) // =======================================================
(PID.TID 0000.0001) K =   1
(PID.TID 0000.0001)                I=10      I=20      I=30      I=40      I=50      I=60      I=70      I=80      I=90      I=100     I=110     I=120     I=130     I=140     I=150     I=160     I=170     I=180     I=190
(PID.TID 0000.0001) |--J--|123456789|123456789|123456789|123456789|123456789|123456789|123456789|123456789|123456789|123456789|123456789|123456789|123456789|123456789|123456789|123456789|123456789|123456789|123456789|12
(PID.TID 0000.0001)     32 ------------------------------------------------------------------------------------------------------------------------------------------------------------------------------------------------
(PID.TID 0000.0001)     31 ------------------------------------------------------------------------------------------------------------------------------------------------------------------------------------------------
(PID.TID 0000.0001)     30 ------------------------------------------------------------------------------------------------------------------------------------------------------------------------------------------------
(PID.TID 0000.0001)     29 ------------------------------------------------------------------------------------------------------------------------------------------------------------------------------------------------
(PID.TID 0000.0001)     28 ------------------------------------------------------------------------------------------------------------------------------------------------------------------------------------------------
(PID.TID 0000.0001)     27 ------------------------------------------------------------------------------------------------------------------------------------------------------------------------------------------------
(PID.TID 0000.0001)     26 ------------------------------------------------------------------------------------------------------------------------------------------------------------------------------------------------
(PID.TID 0000.0001)     25 ------------------------------------------------------------------------------------------------------------------------------------------------------------------------------------------------
(PID.TID 0000.0001)     24 ------------------------------------------------------------------------------------------------------------------------------------------------------------------------------------------------
(PID.TID 0000.0001)     23 ------------------------------------------------------------------------------------------------------------------------------------------------------------------------------------------------
(PID.TID 0000.0001)     22 ------------------------------------------------------------------------------------------------------------------------------------------------------------------------------------------------
(PID.TID 0000.0001)     21 -------------------------------------------abbccccbba-------------------------------------------------------------------------------------------------------------------------------------------
(PID.TID 0000.0001)     20 ------------------------------------------abdghiihgdba------------------------------------------------------------------------------------------------------------------------------------------
(PID.TID 0000.0001)     19 ------------------------------------------beiloppolheb------------------------------------------------------------------------------------------------------------------------------------------
(PID.TID 0000.0001)     18 -----------------------------------------acgmrvwwvrlgca-----------------------------------------------------------------------------------------------------------------------------------------
(PID.TID 0000.0001)     17 -----------------------------------------adioty++ytoida-----------------------------------------------------------------------------------------------------------------------------------------
(PID.TID 0000.0001)     16 -----------------------------------------adioty++ytoida-----------------------------------------------------------------------------------------------------------------------------------------
(PID.TID 0000.0001)     15 -----------------------------------------acgmrvwwvrlgca-----------------------------------------------------------------------------------------------------------------------------------------
(PID.TID 0000.0001)     14 ------------------------------------------beiloppolheb------------------------------------------------------------------------------------------------------------------------------------------
(PID.TID 0000.0001)     13 ------------------------------------------abdghiihgdba------------------------------------------------------------------------------------------------------------------------------------------
(PID.TID 0000.0001)     12 -------------------------------------------abbccccbba-------------------------------------------------------------------------------------------------------------------------------------------
(PID.TID 0000.0001)     11 ------------------------------------------------------------------------------------------------------------------------------------------------------------------------------------------------
(PID.TID 0000.0001)     10 ------------------------------------------------------------------------------------------------------------------------------------------------------------------------------------------------
(PID.TID 0000.0001)      9 ------------------------------------------------------------------------------------------------------------------------------------------------------------------------------------------------
(PID.TID 0000.0001)      8 ------------------------------------------------------------------------------------------------------------------------------------------------------------------------------------------------
(PID.TID 0000.0001)      7 ------------------------------------------------------------------------------------------------------------------------------------------------------------------------------------------------
(PID.TID 0000.0001)      6 ------------------------------------------------------------------------------------------------------------------------------------------------------------------------------------------------
(PID.TID 0000.0001)      5 ------------------------------------------------------------------------------------------------------------------------------------------------------------------------------------------------
(PID.TID 0000.0001)      4 ------------------------------------------------------------------------------------------------------------------------------------------------------------------------------------------------
(PID.TID 0000.0001)      3 ------------------------------------------------------------------------------------------------------------------------------------------------------------------------------------------------
(PID.TID 0000.0001)      2 ------------------------------------------------------------------------------------------------------------------------------------------------------------------------------------------------
(PID.TID 0000.0001)      1 ------------------------------------------------------------------------------------------------------------------------------------------------------------------------------------------------
(PID.TID 0000.0001) // =======================================================
(PID.TID 0000.0001) // END OF FIELD                                          =
(PID.TID 0000.0001) // =======================================================
(PID.TID 0000.0001) 
(PID.TID 0000.0001) // =======================================================
(PID.TID 0000.0001) // Field Current etaN   at iteration        288
(PID.TID 0000.0001) // CMIN =          1.000000000000000E+32
(PID.TID 0000.0001) // CMAX =         -1.000000000000000E+32
(PID.TID 0000.0001) // CINT =          0.000000000000000E+00
(PID.TID 0000.0001) // SYMBOLS (CMIN->CMAX): -abcdefghijklmnopqrstuvwxyz+
(PID.TID 0000.0001) //                  0.0: .
(PID.TID 0000.0001) // RANGE I (Lo:Hi:Step):(  -2: 195:   1)
(PID.TID 0000.0001) // RANGE J (Lo:Hi:Step):(  35:  -2:  -1)
(PID.TID 0000.0001) // RANGE K (Lo:Hi:Step):(   1:   1:   1)
(PID.TID 0000.0001) // =======================================================
(PID.TID 0000.0001) K =   1
(PID.TID 0000.0001)                I=7       I=17      I=27      I=31      I=41      I=51      I=61      I=65      I=75      I=85      I=95      I=99      I=109     I=119     I=129     I=133     I=143     I=153     I=163     I=167     I=177     I=187
(PID.TID 0000.0001) |--J--|**0123456|890123456|890123456|890123450|234567890|234567890|234567890|234567234|678901234|678901234|678901234|678945678|012345678|012345678|012345678|016789012|456789012|456789012|456789012|890123456|890123456|890123456|89012345
(PID.TID 0000.0001)     35 ....................................................................................................................................................................................................................................
(PID.TID 0000.0001)     34 ....................................................................................................................................................................................................................................
(PID.TID 0000.0001)     33 ....................................................................................................................................................................................................................................
(PID.TID 0000.0001)     32 ....................................................................................................................................................................................................................................
(PID.TID 0000.0001)     31 ....................................................................................................................................................................................................................................
(PID.TID 0000.0001)     30 ....................................................................................................................................................................................................................................
(PID.TID 0000.0001)     29 ....................................................................................................................................................................................................................................
(PID.TID 0000.0001)     28 ....................................................................................................................................................................................................................................
(PID.TID 0000.0001)     27 ....................................................................................................................................................................................................................................
(PID.TID 0000.0001)     26 ....................................................................................................................................................................................................................................
(PID.TID 0000.0001)     25 ....................................................................................................................................................................................................................................
(PID.TID 0000.0001)     24 ....................................................................................................................................................................................................................................
(PID.TID 0000.0001)     23 ....................................................................................................................................................................................................................................
(PID.TID 0000.0001)     22 ....................................................................................................................................................................................................................................
(PID.TID 0000.0001)     21 ....................................................................................................................................................................................................................................
(PID.TID 0000.0001)     20 ....................................................................................................................................................................................................................................
(PID.TID 0000.0001)     19 ....................................................................................................................................................................................................................................
(PID.TID 0000.0001)     18 ....................................................................................................................................................................................................................................
(PID.TID 0000.0001)     17 ....................................................................................................................................................................................................................................
(PID.TID 0000.0001)     16 ....................................................................................................................................................................................................................................
(PID.TID 0000.0001)     15 ....................................................................................................................................................................................................................................
(PID.TID 0000.0001)     14 ....................................................................................................................................................................................................................................
(PID.TID 0000.0001)     13 ....................................................................................................................................................................................................................................
(PID.TID 0000.0001)     12 ....................................................................................................................................................................................................................................
(PID.TID 0000.0001)     11 ....................................................................................................................................................................................................................................
(PID.TID 0000.0001)     10 ....................................................................................................................................................................................................................................
(PID.TID 0000.0001)      9 ....................................................................................................................................................................................................................................
(PID.TID 0000.0001)      8 ....................................................................................................................................................................................................................................
(PID.TID 0000.0001)      7 ....................................................................................................................................................................................................................................
(PID.TID 0000.0001)      6 ....................................................................................................................................................................................................................................
(PID.TID 0000.0001)      5 ....................................................................................................................................................................................................................................
(PID.TID 0000.0001)      4 ....................................................................................................................................................................................................................................
(PID.TID 0000.0001)      3 ....................................................................................................................................................................................................................................
(PID.TID 0000.0001)      2 ....................................................................................................................................................................................................................................
(PID.TID 0000.0001)      1 ....................................................................................................................................................................................................................................
(PID.TID 0000.0001)      0 ....................................................................................................................................................................................................................................
(PID.TID 0000.0001)     -1 ....................................................................................................................................................................................................................................
(PID.TID 0000.0001)     -2 ....................................................................................................................................................................................................................................
(PID.TID 0000.0001) // =======================================================
(PID.TID 0000.0001) // END OF FIELD                                          =
(PID.TID 0000.0001) // =======================================================
(PID.TID 0000.0001) 
(PID.TID 0000.0001)   Seconds in section "ALL                [THE_MODEL_MAIN]":
(PID.TID 0000.0001)           User time:  30.4599993
(PID.TID 0000.0001)         System time:  0.239999995
(PID.TID 0000.0001)     Wall clock time:  30.777126
(PID.TID 0000.0001)          No. starts: 1
(PID.TID 0000.0001)           No. stops: 1
(PID.TID 0000.0001)   Seconds in section "INITIALISE_FIXED   [THE_MODEL_MAIN]":
(PID.TID 0000.0001)           User time:  0.720000019
(PID.TID 0000.0001)         System time:  0.0500000007
(PID.TID 0000.0001)     Wall clock time:  0.840595961
(PID.TID 0000.0001)          No. starts: 1
(PID.TID 0000.0001)           No. stops: 1
(PID.TID 0000.0001)   Seconds in section "THE_MAIN_LOOP      [THE_MODEL_MAIN]":
(PID.TID 0000.0001)           User time:  29.6599994
(PID.TID 0000.0001)         System time:  0.180000003
(PID.TID 0000.0001)     Wall clock time:  29.844635
(PID.TID 0000.0001)          No. starts: 1
(PID.TID 0000.0001)           No. stops: 1
(PID.TID 0000.0001)   Seconds in section "INITIALISE_VARIA    [THE_MAIN_LOOP]":
(PID.TID 0000.0001)           User time:  0.0499999523
(PID.TID 0000.0001)         System time:  0.00999999791
(PID.TID 0000.0001)     Wall clock time:  0.0547090769
(PID.TID 0000.0001)          No. starts: 1
(PID.TID 0000.0001)           No. stops: 1
(PID.TID 0000.0001)   Seconds in section "WRITE_STATE         [THE_MAIN_LOOP]":
(PID.TID 0000.0001)           User time:  0.030000031
(PID.TID 0000.0001)         System time:  0.0100000016
(PID.TID 0000.0001)     Wall clock time:  0.0442630053
(PID.TID 0000.0001)          No. starts: 1
(PID.TID 0000.0001)           No. stops: 1
(PID.TID 0000.0001)   Seconds in section "MONITOR             [THE_MAIN_LOOP]":
(PID.TID 0000.0001)           User time:  0.0299999714
(PID.TID 0000.0001)         System time:  0.
(PID.TID 0000.0001)     Wall clock time:  0.0290429592
(PID.TID 0000.0001)          No. starts: 1
(PID.TID 0000.0001)           No. stops: 1
(PID.TID 0000.0001)   Seconds in section "MAIN LOOP           [THE_MAIN_LOOP]":
(PID.TID 0000.0001)           User time:  29.5499994
(PID.TID 0000.0001)         System time:  0.160000004
(PID.TID 0000.0001)     Wall clock time:  29.716163
(PID.TID 0000.0001)          No. starts: 1
(PID.TID 0000.0001)           No. stops: 1
(PID.TID 0000.0001)   Seconds in section "FORWARD_STEP        [THE_MAIN_LOOP]":
(PID.TID 0000.0001)           User time:  29.5199987
(PID.TID 0000.0001)         System time:  0.160000004
(PID.TID 0000.0001)     Wall clock time:  29.691119
(PID.TID 0000.0001)          No. starts: 288
(PID.TID 0000.0001)           No. stops: 288
(PID.TID 0000.0001)   Seconds in section "EXTERNAL_FIELDS_LOAD[THE_MAIN_LOOP]":
(PID.TID 0000.0001)           User time:  0.0300006866
(PID.TID 0000.0001)         System time:  0.
(PID.TID 0000.0001)     Wall clock time:  0.0249816179
(PID.TID 0000.0001)          No. starts: 288
(PID.TID 0000.0001)           No. stops: 288
(PID.TID 0000.0001)   Seconds in section "THERMODYNAMICS      [THE_MAIN_LOOP]":
(PID.TID 0000.0001)           User time:  25.8199994
(PID.TID 0000.0001)         System time:  0.0100000054
(PID.TID 0000.0001)     Wall clock time:  25.8843985
(PID.TID 0000.0001)          No. starts: 288
(PID.TID 0000.0001)           No. stops: 288
(PID.TID 0000.0001)   Seconds in section "THE_CORRECTION_STEP [THE_MAIN_LOOP]":
(PID.TID 0000.0001)           User time:  0.909999371
(PID.TID 0000.0001)         System time:  0.
(PID.TID 0000.0001)     Wall clock time:  0.908685684
(PID.TID 0000.0001)          No. starts: 288
(PID.TID 0000.0001)           No. stops: 288
(PID.TID 0000.0001)   Seconds in section "BLOCKING_EXCHANGES  [THE_MAIN_LOOP]":
(PID.TID 0000.0001)           User time:  0.419998646
(PID.TID 0000.0001)         System time:  0.
(PID.TID 0000.0001)     Wall clock time:  0.387251973
(PID.TID 0000.0001)          No. starts: 288
(PID.TID 0000.0001)           No. stops: 288
(PID.TID 0000.0001)   Seconds in section "DO_THE_MODEL_IO     [THE_MAIN_LOOP]":
(PID.TID 0000.0001)           User time:  0.779998779
(PID.TID 0000.0001)         System time:  0.140000001
(PID.TID 0000.0001)     Wall clock time:  0.921690702
(PID.TID 0000.0001)          No. starts: 288
(PID.TID 0000.0001)           No. stops: 288
(PID.TID 0000.0001)   Seconds in section "WRITE_CHECKPOINT    [THE_MAIN_LOOP]":
(PID.TID 0000.0001)           User time:  0.00999975204
(PID.TID 0000.0001)         System time:  0.
(PID.TID 0000.0001)     Wall clock time:  0.0251733065
(PID.TID 0000.0001)          No. starts: 288
(PID.TID 0000.0001)           No. stops: 288
(PID.TID 0000.0001)   Seconds in section "WRITE_CHECKPOINT   [THE_MODEL_MAIN]":
(PID.TID 0000.0001)           User time:  0.0799999237
(PID.TID 0000.0001)         System time:  0.00999999046
(PID.TID 0000.0001)     Wall clock time:  0.0914809704
(PID.TID 0000.0001)          No. starts: 1
(PID.TID 0000.0001)           No. stops: 1
(PID.TID 0000.0001) // ======================================================
(PID.TID 0000.0001) // Tile <-> Tile communication statistics
(PID.TID 0000.0001) // ======================================================
(PID.TID 0000.0001) // o Tile number: 000001
(PID.TID 0000.0001) //         No. X exchanges =              0
(PID.TID 0000.0001) //            Max. X spins =              0
(PID.TID 0000.0001) //            Min. X spins =     1000000000
(PID.TID 0000.0001) //          Total. X spins =              0
(PID.TID 0000.0001) //            Avg. X spins =       0.00E+00
(PID.TID 0000.0001) //         No. Y exchanges =              0
(PID.TID 0000.0001) //            Max. Y spins =              0
(PID.TID 0000.0001) //            Min. Y spins =     1000000000
(PID.TID 0000.0001) //          Total. Y spins =              0
(PID.TID 0000.0001) //            Avg. Y spins =       0.00E+00
(PID.TID 0000.0001) // o Tile number: 000002
(PID.TID 0000.0001) //         No. X exchanges =              0
(PID.TID 0000.0001) //            Max. X spins =              0
(PID.TID 0000.0001) //            Min. X spins =     1000000000
(PID.TID 0000.0001) //          Total. X spins =              0
(PID.TID 0000.0001) //            Avg. X spins =       0.00E+00
(PID.TID 0000.0001) //         No. Y exchanges =              0
(PID.TID 0000.0001) //            Max. Y spins =              0
(PID.TID 0000.0001) //            Min. Y spins =     1000000000
(PID.TID 0000.0001) //          Total. Y spins =              0
(PID.TID 0000.0001) //            Avg. Y spins =       0.00E+00
(PID.TID 0000.0001) // o Tile number: 000003
(PID.TID 0000.0001) //         No. X exchanges =              0
(PID.TID 0000.0001) //            Max. X spins =              0
(PID.TID 0000.0001) //            Min. X spins =     1000000000
(PID.TID 0000.0001) //          Total. X spins =              0
(PID.TID 0000.0001) //            Avg. X spins =       0.00E+00
(PID.TID 0000.0001) //         No. Y exchanges =              0
(PID.TID 0000.0001) //            Max. Y spins =              0
(PID.TID 0000.0001) //            Min. Y spins =     1000000000
(PID.TID 0000.0001) //          Total. Y spins =              0
(PID.TID 0000.0001) //            Avg. Y spins =       0.00E+00
(PID.TID 0000.0001) // o Tile number: 000004
(PID.TID 0000.0001) //         No. X exchanges =              0
(PID.TID 0000.0001) //            Max. X spins =              0
(PID.TID 0000.0001) //            Min. X spins =     1000000000
(PID.TID 0000.0001) //          Total. X spins =              0
(PID.TID 0000.0001) //            Avg. X spins =       0.00E+00
(PID.TID 0000.0001) //         No. Y exchanges =              0
(PID.TID 0000.0001) //            Max. Y spins =              0
(PID.TID 0000.0001) //            Min. Y spins =     1000000000
(PID.TID 0000.0001) //          Total. Y spins =              0
(PID.TID 0000.0001) //            Avg. Y spins =       0.00E+00
(PID.TID 0000.0001) // o Tile number: 000005
(PID.TID 0000.0001) //         No. X exchanges =              0
(PID.TID 0000.0001) //            Max. X spins =              0
(PID.TID 0000.0001) //            Min. X spins =     1000000000
(PID.TID 0000.0001) //          Total. X spins =              0
(PID.TID 0000.0001) //            Avg. X spins =       0.00E+00
(PID.TID 0000.0001) //         No. Y exchanges =              0
(PID.TID 0000.0001) //            Max. Y spins =              0
(PID.TID 0000.0001) //            Min. Y spins =     1000000000
(PID.TID 0000.0001) //          Total. Y spins =              0
(PID.TID 0000.0001) //            Avg. Y spins =       0.00E+00
(PID.TID 0000.0001) // o Tile number: 000006
(PID.TID 0000.0001) //         No. X exchanges =              0
(PID.TID 0000.0001) //            Max. X spins =              0
(PID.TID 0000.0001) //            Min. X spins =     1000000000
(PID.TID 0000.0001) //          Total. X spins =              0
(PID.TID 0000.0001) //            Avg. X spins =       0.00E+00
(PID.TID 0000.0001) //         No. Y exchanges =              0
(PID.TID 0000.0001) //            Max. Y spins =              0
(PID.TID 0000.0001) //            Min. Y spins =     1000000000
(PID.TID 0000.0001) //          Total. Y spins =              0
(PID.TID 0000.0001) //            Avg. Y spins =       0.00E+00
(PID.TID 0000.0001) // o Thread number: 000001
(PID.TID 0000.0001) //            No. barriers =          13804
(PID.TID 0000.0001) //      Max. barrier spins =              1
(PID.TID 0000.0001) //      Min. barrier spins =              1
(PID.TID 0000.0001) //     Total barrier spins =          13804
(PID.TID 0000.0001) //      Avg. barrier spins =       1.00E+00
