(PID.TID 0000.0001) 
(PID.TID 0000.0001) // ======================================================
(PID.TID 0000.0001) //                      MITgcm UV
(PID.TID 0000.0001) //                      =========
(PID.TID 0000.0001) // ======================================================
(PID.TID 0000.0001) // execution environment starting up...
(PID.TID 0000.0001) 
(PID.TID 0000.0001) // MITgcmUV version:  checkpoint57c_pre
(PID.TID 0000.0001) // Build user:        jmc
(PID.TID 0000.0001) // Build host:        faulks
(PID.TID 0000.0001) // Build date:        Thu Jan 27 09:28:52 EST 2005
(PID.TID 0000.0001) 
(PID.TID 0000.0001) // =======================================================
(PID.TID 0000.0001) // Execution Environment parameter file "eedata"
(PID.TID 0000.0001) // =======================================================
(PID.TID 0000.0001) ># Example "eedata" file
(PID.TID 0000.0001) ># Lines beginning "#" are comments
(PID.TID 0000.0001) ># nTx - No. threads per process in X
(PID.TID 0000.0001) ># nTy - No. threads per process in Y
(PID.TID 0000.0001) > &EEPARMS
(PID.TID 0000.0001) > useCubedSphereExchange=.TRUE.,
(PID.TID 0000.0001) > &
(PID.TID 0000.0001) ># Note: Some systems use & as the
(PID.TID 0000.0001) ># namelist terminator. Other systems
(PID.TID 0000.0001) ># use a / character (as shown here).
(PID.TID 0000.0001) 
(PID.TID 0000.0001) // =======================================================
(PID.TID 0000.0001) // Computational Grid Specification ( see files "SIZE.h" )
(PID.TID 0000.0001) //                                  ( and "eedata"       )
(PID.TID 0000.0001) // =======================================================
(PID.TID 0000.0001)      nPx =    1 ; /* No. processes in X */
(PID.TID 0000.0001)      nPy =    1 ; /* No. processes in Y */
(PID.TID 0000.0001)      nSx =    6 ; /* No. tiles in X per process */
(PID.TID 0000.0001)      nSy =    1 ; /* No. tiles in Y per process */
(PID.TID 0000.0001)      sNx =   32 ; /* Tile size in X */
(PID.TID 0000.0001)      sNy =   32 ; /* Tile size in Y */
(PID.TID 0000.0001)      OLx =    4 ; /* Tile overlap distance in X */
(PID.TID 0000.0001)      OLy =    4 ; /* Tile overlap distance in Y */
(PID.TID 0000.0001)      nTx =    1 ; /* No. threads in X per process */
(PID.TID 0000.0001)      nTy =    1 ; /* No. threads in Y per process */
(PID.TID 0000.0001)       Nr =    1 ; /* No. levels in the vertical   */
(PID.TID 0000.0001)       nX =  192 ; /* Total domain size in X ( = nPx*nSx*sNx ) */
(PID.TID 0000.0001)       nY =   32 ; /* Total domain size in Y ( = nPy*nSy*sNy ) */
(PID.TID 0000.0001)   nTiles =    6 ; /* Total no. tiles per process ( = nSx*nSy ) */
(PID.TID 0000.0001)   nProcs =    1 ; /* Total no. processes ( = nPx*nPy ) */
(PID.TID 0000.0001) nThreads =    1 ; /* Total no. threads per process ( = nTx*nTy ) */
(PID.TID 0000.0001) usingMPI =    F ; /* Flag used to control whether MPI is in use */
(PID.TID 0000.0001)                   /*  note: To execute a program with MPI calls */
(PID.TID 0000.0001)                   /*  it must be launched appropriately e.g     */
(PID.TID 0000.0001)                   /*  "mpirun -np 64 ......"                    */
(PID.TID 0000.0001) useCoupler=   F ; /* Flag used to control communications with */
(PID.TID 0000.0001)                   /*  other model components, through a coupler */
(PID.TID 0000.0001) 
(PID.TID 0000.0001) // ======================================================
(PID.TID 0000.0001) // Mapping of tiles to threads
(PID.TID 0000.0001) // ======================================================
(PID.TID 0000.0001) // -o- Thread   1, tiles (   1:   6,   1:   1)
(PID.TID 0000.0001) 
(PID.TID 0000.0001) // ======================================================
(PID.TID 0000.0001) // Tile <-> Tile connectvity table
(PID.TID 0000.0001) // ======================================================
(PID.TID 0000.0001) // Tile number: 000001 (process no. = 000001)
(PID.TID 0000.0001) //        WEST: Tile = 000006, Process = 000001, Comm = put
(PID.TID 0000.0001) //                bi = 000006, bj = 000001
(PID.TID 0000.0001) //        EAST: Tile = 000002, Process = 000001, Comm = put
(PID.TID 0000.0001) //                bi = 000002, bj = 000001
(PID.TID 0000.0001) //       SOUTH: Tile = 000001, Process = 000001, Comm = put
(PID.TID 0000.0001) //                bi = 000001, bj = 000001
(PID.TID 0000.0001) //       NORTH: Tile = 000001, Process = 000001, Comm = put
(PID.TID 0000.0001) //                bi = 000001, bj = 000001
(PID.TID 0000.0001) // Tile number: 000002 (process no. = 000001)
(PID.TID 0000.0001) //        WEST: Tile = 000001, Process = 000001, Comm = put
(PID.TID 0000.0001) //                bi = 000001, bj = 000001
(PID.TID 0000.0001) //        EAST: Tile = 000003, Process = 000001, Comm = put
(PID.TID 0000.0001) //                bi = 000003, bj = 000001
(PID.TID 0000.0001) //       SOUTH: Tile = 000002, Process = 000001, Comm = put
(PID.TID 0000.0001) //                bi = 000002, bj = 000001
(PID.TID 0000.0001) //       NORTH: Tile = 000002, Process = 000001, Comm = put
(PID.TID 0000.0001) //                bi = 000002, bj = 000001
(PID.TID 0000.0001) // Tile number: 000003 (process no. = 000001)
(PID.TID 0000.0001) //        WEST: Tile = 000002, Process = 000001, Comm = put
(PID.TID 0000.0001) //                bi = 000002, bj = 000001
(PID.TID 0000.0001) //        EAST: Tile = 000004, Process = 000001, Comm = put
(PID.TID 0000.0001) //                bi = 000004, bj = 000001
(PID.TID 0000.0001) //       SOUTH: Tile = 000003, Process = 000001, Comm = put
(PID.TID 0000.0001) //                bi = 000003, bj = 000001
(PID.TID 0000.0001) //       NORTH: Tile = 000003, Process = 000001, Comm = put
(PID.TID 0000.0001) //                bi = 000003, bj = 000001
(PID.TID 0000.0001) // Tile number: 000004 (process no. = 000001)
(PID.TID 0000.0001) //        WEST: Tile = 000003, Process = 000001, Comm = put
(PID.TID 0000.0001) //                bi = 000003, bj = 000001
(PID.TID 0000.0001) //        EAST: Tile = 000005, Process = 000001, Comm = put
(PID.TID 0000.0001) //                bi = 000005, bj = 000001
(PID.TID 0000.0001) //       SOUTH: Tile = 000004, Process = 000001, Comm = put
(PID.TID 0000.0001) //                bi = 000004, bj = 000001
(PID.TID 0000.0001) //       NORTH: Tile = 000004, Process = 000001, Comm = put
(PID.TID 0000.0001) //                bi = 000004, bj = 000001
(PID.TID 0000.0001) // Tile number: 000005 (process no. = 000001)
(PID.TID 0000.0001) //        WEST: Tile = 000004, Process = 000001, Comm = put
(PID.TID 0000.0001) //                bi = 000004, bj = 000001
(PID.TID 0000.0001) //        EAST: Tile = 000006, Process = 000001, Comm = put
(PID.TID 0000.0001) //                bi = 000006, bj = 000001
(PID.TID 0000.0001) //       SOUTH: Tile = 000005, Process = 000001, Comm = put
(PID.TID 0000.0001) //                bi = 000005, bj = 000001
(PID.TID 0000.0001) //       NORTH: Tile = 000005, Process = 000001, Comm = put
(PID.TID 0000.0001) //                bi = 000005, bj = 000001
(PID.TID 0000.0001) // Tile number: 000006 (process no. = 000001)
(PID.TID 0000.0001) //        WEST: Tile = 000005, Process = 000001, Comm = put
(PID.TID 0000.0001) //                bi = 000005, bj = 000001
(PID.TID 0000.0001) //        EAST: Tile = 000001, Process = 000001, Comm = put
(PID.TID 0000.0001) //                bi = 000001, bj = 000001
(PID.TID 0000.0001) //       SOUTH: Tile = 000006, Process = 000001, Comm = put
(PID.TID 0000.0001) //                bi = 000006, bj = 000001
(PID.TID 0000.0001) //       NORTH: Tile = 000006, Process = 000001, Comm = put
(PID.TID 0000.0001) //                bi = 000006, bj = 000001
(PID.TID 0000.0001) 
(PID.TID 0000.0001) // =======================================================
(PID.TID 0000.0001) // Model parameter file "data"
(PID.TID 0000.0001) // =======================================================
(PID.TID 0000.0001) ># ====================
(PID.TID 0000.0001) ># | Model parameters |
(PID.TID 0000.0001) ># ====================
(PID.TID 0000.0001) >#
(PID.TID 0000.0001) ># Continuous equation parameters
(PID.TID 0000.0001) > &PARM01
(PID.TID 0000.0001) > tRef=0.,
(PID.TID 0000.0001) > sRef=0.,
(PID.TID 0000.0001) > diffKrT=0.,
(PID.TID 0000.0001) > diffKhT=0.,
(PID.TID 0000.0001) > diffK4T=0.,
(PID.TID 0000.0001) > diffKrS=0.,
(PID.TID 0000.0001) > diffKhS=0.,
(PID.TID 0000.0001) > diffK4S=0.,
(PID.TID 0000.0001) > rigidLid=.FALSE.,
(PID.TID 0000.0001) > implicitFreeSurface=.TRUE.,
(PID.TID 0000.0001) > readBinaryPrec=64,
(PID.TID 0000.0001) > writeBinaryPrec=64,
(PID.TID 0000.0001) > momStepping=.FALSE.,
(PID.TID 0000.0001) > tempStepping=.TRUE.,
(PID.TID 0000.0001) > saltStepping=.TRUE.,
(PID.TID 0000.0001) > tempAdvScheme=33,
(PID.TID 0000.0001) > saltAdvScheme=33,
(PID.TID 0000.0001) > &
(PID.TID 0000.0001) >
(PID.TID 0000.0001) ># Elliptic solver parameters
(PID.TID 0000.0001) > &PARM02
(PID.TID 0000.0001) > cg2dMaxIters=600,
(PID.TID 0000.0001) > cg2dTargetResidual=1.E-12,
(PID.TID 0000.0001) > &
(PID.TID 0000.0001) >
(PID.TID 0000.0001) ># Time stepping parameters
(PID.TID 0000.0001) > &PARM03
(PID.TID 0000.0001) > niter0=0,
(PID.TID 0000.0001) > endTime=1036800.,
(PID.TID 0000.0001) > abEps=0.1,
(PID.TID 0000.0001) > deltaT=3600.0,
(PID.TID 0000.0001) > cAdjFreq=0.,
(PID.TID 0000.0001) > pChkptFreq=0.0,
(PID.TID 0000.0001) > chkptFreq=0.0,
(PID.TID 0000.0001) > dumpFreq=86400.0,
(PID.TID 0000.0001) > monitorFreq=21600.,
(PID.TID 0000.0001) > &
(PID.TID 0000.0001) >
(PID.TID 0000.0001) ># Gridding parameters
(PID.TID 0000.0001) > &PARM04
(PID.TID 0000.0001) > usingCartesianGrid=.FALSE.,
(PID.TID 0000.0001) > usingSphericalPolarGrid=.FALSE.,
(PID.TID 0000.0001) > usingCurvilinearGrid=.TRUE.,
(PID.TID 0000.0001) > delR=1.E5,
(PID.TID 0000.0001) > Ro_SeaLevel=1.E5,
(PID.TID 0000.0001) > groundAtK1=.TRUE.,
(PID.TID 0000.0001) > &
(PID.TID 0000.0001) >
(PID.TID 0000.0001) ># Input datasets
(PID.TID 0000.0001) > &PARM05
(PID.TID 0000.0001) >#uVelInitFile='U.init',
(PID.TID 0000.0001) >#vVelInitFile='V.init',
(PID.TID 0000.0001) >#pSurfInitFile='Eta.init',
(PID.TID 0000.0001) > hydrogThetaFile='T.init',
(PID.TID 0000.0001) > hydrogSaltFile='S.init',
(PID.TID 0000.0001) > &
(PID.TID 0000.0001) 
(PID.TID 0000.0001) S/R INI_PARMS ; starts to read PARM01
(PID.TID 0000.0001) S/R INI_PARMS ; read PARM01 : OK
(PID.TID 0000.0001) S/R INI_PARMS ; starts to read PARM02
(PID.TID 0000.0001) S/R INI_PARMS ; read PARM02 : OK
(PID.TID 0000.0001) S/R INI_PARMS ; starts to read PARM03
(PID.TID 0000.0001) S/R INI_PARMS ; read PARM03 : OK
(PID.TID 0000.0001) S/R INI_PARMS ; starts to read PARM04
(PID.TID 0000.0001) S/R INI_PARMS ; read PARM04 : OK
(PID.TID 0000.0001) S/R INI_PARMS ; starts to read PARM05
(PID.TID 0000.0001) S/R INI_PARMS ; read PARM05 : OK
(PID.TID 0000.0001)  PACKAGES_BOOT: opening data.pkg
(PID.TID 0000.0001)  OPEN_COPY_DATA_FILE: opening file data.pkg
(PID.TID 0000.0001) // =======================================================
(PID.TID 0000.0001) // Parameter file "data.pkg"
(PID.TID 0000.0001) // =======================================================
(PID.TID 0000.0001) ># Packages
(PID.TID 0000.0001) > &PACKAGES
(PID.TID 0000.0001) > &
(PID.TID 0000.0001) 
(PID.TID 0000.0001)  PACKAGES_BOOT: finished reading data.pkg
(PID.TID 0000.0001)  MDSREADFIELD: opening global file: LONC.bin
(PID.TID 0000.0001)  MDSREADFIELD: opening global file: LATC.bin
(PID.TID 0000.0001)  MDSREADFIELD: opening global file: DXF.bin
(PID.TID 0000.0001)  MDSREADFIELD: opening global file: DYF.bin
(PID.TID 0000.0001)  MDSREADFIELD: opening global file: RA.bin
(PID.TID 0000.0001)  MDSREADFIELD: opening global file: LONG.bin
(PID.TID 0000.0001)  MDSREADFIELD: opening global file: LATG.bin
(PID.TID 0000.0001)  MDSREADFIELD: opening global file: DXV.bin
(PID.TID 0000.0001)  MDSREADFIELD: opening global file: DYU.bin
(PID.TID 0000.0001)  MDSREADFIELD: opening global file: RAZ.bin
(PID.TID 0000.0001)  MDSREADFIELD: opening global file: DXC.bin
(PID.TID 0000.0001)  MDSREADFIELD: opening global file: DYC.bin
(PID.TID 0000.0001)  MDSREADFIELD: opening global file: RAW.bin
(PID.TID 0000.0001)  MDSREADFIELD: opening global file: RAS.bin
(PID.TID 0000.0001)  MDSREADFIELD: opening global file: DXG.bin
(PID.TID 0000.0001)  MDSREADFIELD: opening global file: DYG.bin
(PID.TID 0000.0001) %MON XC_max                       =   1.7854351589505E+02
(PID.TID 0000.0001) %MON XC_min                       =  -1.7854351589505E+02
(PID.TID 0000.0001) %MON XC_mean                      =  -4.6999441375798E-15
(PID.TID 0000.0001) %MON XC_sd                        =   1.0355545336287E+02
(PID.TID 0000.0001) %MON XG_max                       =   1.8000000000000E+02
(PID.TID 0000.0001) %MON XG_min                       =  -1.7708797161002E+02
(PID.TID 0000.0001) %MON XG_mean                      =   1.8796250616675E+00
(PID.TID 0000.0001) %MON XG_sd                        =   1.0410625309932E+02
(PID.TID 0000.0001) %MON DXC_max                      =   3.2375185836900E+05
(PID.TID 0000.0001) %MON DXC_min                      =   1.1142031410131E+05
(PID.TID 0000.0001) %MON DXC_mean                     =   2.8605689051214E+05
(PID.TID 0000.0001) %MON DXC_sd                       =   3.4042087138252E+04
(PID.TID 0000.0001) %MON DXF_max                      =   3.2369947500827E+05
(PID.TID 0000.0001) %MON DXF_min                      =   1.2020820513318E+05
(PID.TID 0000.0001) %MON DXF_mean                     =   2.8605437324820E+05
(PID.TID 0000.0001) %MON DXF_sd                       =   3.4050524252539E+04
(PID.TID 0000.0001) %MON DXG_max                      =   3.2375195872773E+05
(PID.TID 0000.0001) %MON DXG_min                      =   1.0098378008791E+05
(PID.TID 0000.0001) %MON DXG_mean                     =   2.8603818508931E+05
(PID.TID 0000.0001) %MON DXG_sd                       =   3.4140406908005E+04
(PID.TID 0000.0001) %MON DXV_max                      =   3.2380418162750E+05
(PID.TID 0000.0001) %MON DXV_min                      =   8.0152299824136E+04
(PID.TID 0000.0001) %MON DXV_mean                     =   2.8603970633619E+05
(PID.TID 0000.0001) %MON DXV_sd                       =   3.4145142117723E+04
(PID.TID 0000.0001) %MON YC_max                       =   8.7940663871962E+01
(PID.TID 0000.0001) %MON YC_min                       =  -8.7940663871962E+01
(PID.TID 0000.0001) %MON YC_mean                      =   0.0000000000000E+00
(PID.TID 0000.0001) %MON YC_sd                        =   3.8676242969072E+01
(PID.TID 0000.0001) %MON YG_max                       =   9.0000000000000E+01
(PID.TID 0000.0001) %MON YG_min                       =  -9.0000000000000E+01
(PID.TID 0000.0001) %MON YG_mean                      =  -1.2094344438470E-15
(PID.TID 0000.0001) %MON YG_sd                        =   3.9086186579984E+01
(PID.TID 0000.0001) %MON DYC_max                      =   3.2375185836900E+05
(PID.TID 0000.0001) %MON DYC_min                      =   1.1142031410131E+05
(PID.TID 0000.0001) %MON DYC_mean                     =   2.8605689051214E+05
(PID.TID 0000.0001) %MON DYC_sd                       =   3.4042087138252E+04
(PID.TID 0000.0001) %MON DYF_max                      =   3.2369947500827E+05
(PID.TID 0000.0001) %MON DYF_min                      =   1.2020820513318E+05
(PID.TID 0000.0001) %MON DYF_mean                     =   2.8605437324820E+05
(PID.TID 0000.0001) %MON DYF_sd                       =   3.4050524252539E+04
(PID.TID 0000.0001) %MON DYG_max                      =   3.2375195872773E+05
(PID.TID 0000.0001) %MON DYG_min                      =   1.0098378008791E+05
(PID.TID 0000.0001) %MON DYG_mean                     =   2.8603818508931E+05
(PID.TID 0000.0001) %MON DYG_sd                       =   3.4140406908005E+04
(PID.TID 0000.0001) %MON DYU_max                      =   3.2380418162750E+05
(PID.TID 0000.0001) %MON DYU_min                      =   8.0152299824136E+04
(PID.TID 0000.0001) %MON DYU_mean                     =   2.8603970633619E+05
(PID.TID 0000.0001) %MON DYU_sd                       =   3.4145142117723E+04
(PID.TID 0000.0001) %MON RA_max                       =   1.0479260248419E+11
(PID.TID 0000.0001) %MON RA_min                       =   1.4019007022556E+10
(PID.TID 0000.0001) %MON RA_mean                      =   8.2992246709265E+10
(PID.TID 0000.0001) %MON RA_sd                        =   1.7509089299457E+10
(PID.TID 0000.0001) %MON RAW_max                      =   1.0480965274559E+11
(PID.TID 0000.0001) %MON RAW_min                      =   1.2166903467143E+10
(PID.TID 0000.0001) %MON RAW_mean                     =   8.2992246709235E+10
(PID.TID 0000.0001) %MON RAW_sd                       =   1.7481917919656E+10
(PID.TID 0000.0001) %MON RAS_max                      =   1.0480965274559E+11
(PID.TID 0000.0001) %MON RAS_min                      =   1.2166903467143E+10
(PID.TID 0000.0001) %MON RAS_mean                     =   8.2992246709235E+10
(PID.TID 0000.0001) %MON RAS_sd                       =   1.7481917919656E+10
(PID.TID 0000.0001) %MON RAZ_max                      =   1.0484349334619E+11
(PID.TID 0000.0001) %MON RAZ_min                      =   8.8317900612505E+09
(PID.TID 0000.0001) %MON RAZ_mean                     =   8.2992246709235E+10
(PID.TID 0000.0001) %MON RAZ_sd                       =   1.7482297311044E+10
(PID.TID 0000.0001) // =======================================================
(PID.TID 0000.0001) // Field Model R_low (ini_masks_etc) at iteration          1
(PID.TID 0000.0001) // CMIN =          1.000000000000000E+32
(PID.TID 0000.0001) // CMAX =         -1.000000000000000E+32
(PID.TID 0000.0001) // CINT =          0.000000000000000E+00
(PID.TID 0000.0001) // SYMBOLS (CMIN->CMAX): -abcdefghijklmnopqrstuvwxyz+
(PID.TID 0000.0001) //                  0.0: .
(PID.TID 0000.0001) // RANGE I (Lo:Hi:Step):(  -3: 196:   1)
(PID.TID 0000.0001) // RANGE J (Lo:Hi:Step):(  36:  -3:  -1)
(PID.TID 0000.0001) // RANGE K (Lo:Hi:Step):(   1:   1:   1)
(PID.TID 0000.0001) // =======================================================
(PID.TID 0000.0001) // =======================================================
(PID.TID 0000.0001) // END OF FIELD                                          =
(PID.TID 0000.0001) // =======================================================
(PID.TID 0000.0001) 
(PID.TID 0000.0001) // =======================================================
(PID.TID 0000.0001) // Field Model Ro_surf (ini_masks_etc) at iteration          1
(PID.TID 0000.0001) // CMIN =          1.000000000000000E+05
(PID.TID 0000.0001) // CMAX =          1.000000000000000E+05
(PID.TID 0000.0001) // CINT =          0.000000000000000E+00
(PID.TID 0000.0001) // SYMBOLS (CMIN->CMAX): -abcdefghijklmnopqrstuvwxyz+
(PID.TID 0000.0001) //                  0.0: .
(PID.TID 0000.0001) // RANGE I (Lo:Hi:Step):(  -3: 196:   1)
(PID.TID 0000.0001) // RANGE J (Lo:Hi:Step):(  36:  -3:  -1)
(PID.TID 0000.0001) // RANGE K (Lo:Hi:Step):(   1:   1:   1)
(PID.TID 0000.0001) // =======================================================
(PID.TID 0000.0001) // =======================================================
(PID.TID 0000.0001) // END OF FIELD                                          =
(PID.TID 0000.0001) // =======================================================
(PID.TID 0000.0001) 
(PID.TID 0000.0001) // =======================================================
(PID.TID 0000.0001) // Field hFacC at iteration          1
(PID.TID 0000.0001) // CMIN =          1.000000000000000E+00
(PID.TID 0000.0001) // CMAX =          1.000000000000000E+00
(PID.TID 0000.0001) // CINT =          0.000000000000000E+00
(PID.TID 0000.0001) // SYMBOLS (CMIN->CMAX): -abcdefghijklmnopqrstuvwxyz+
(PID.TID 0000.0001) //                  0.0: .
(PID.TID 0000.0001) // RANGE I (Lo:Hi:Step):(  -3: 196:   1)
(PID.TID 0000.0001) // RANGE J (Lo:Hi:Step):(  36:  -3:  -1)
(PID.TID 0000.0001) // RANGE K (Lo:Hi:Step):(   1:   1:   1)
(PID.TID 0000.0001) // =======================================================
(PID.TID 0000.0001) // =======================================================
(PID.TID 0000.0001) // END OF FIELD                                          =
(PID.TID 0000.0001) // =======================================================
(PID.TID 0000.0001) 
(PID.TID 0000.0001) // =======================================================
(PID.TID 0000.0001) // Field hFacW at iteration          1
(PID.TID 0000.0001) // CMIN =          1.000000000000000E+00
(PID.TID 0000.0001) // CMAX =          1.000000000000000E+00
(PID.TID 0000.0001) // CINT =          0.000000000000000E+00
(PID.TID 0000.0001) // SYMBOLS (CMIN->CMAX): -abcdefghijklmnopqrstuvwxyz+
(PID.TID 0000.0001) //                  0.0: .
(PID.TID 0000.0001) // RANGE I (Lo:Hi:Step):(  -3: 196:   1)
(PID.TID 0000.0001) // RANGE J (Lo:Hi:Step):(  36:  -3:  -1)
(PID.TID 0000.0001) // RANGE K (Lo:Hi:Step):(   1:   1:   1)
(PID.TID 0000.0001) // =======================================================
(PID.TID 0000.0001) // =======================================================
(PID.TID 0000.0001) // END OF FIELD                                          =
(PID.TID 0000.0001) // =======================================================
(PID.TID 0000.0001) 
(PID.TID 0000.0001) // =======================================================
(PID.TID 0000.0001) // Field hFacS at iteration          1
(PID.TID 0000.0001) // CMIN =          1.000000000000000E+00
(PID.TID 0000.0001) // CMAX =          1.000000000000000E+00
(PID.TID 0000.0001) // CINT =          0.000000000000000E+00
(PID.TID 0000.0001) // SYMBOLS (CMIN->CMAX): -abcdefghijklmnopqrstuvwxyz+
(PID.TID 0000.0001) //                  0.0: .
(PID.TID 0000.0001) // RANGE I (Lo:Hi:Step):(  -3: 196:   1)
(PID.TID 0000.0001) // RANGE J (Lo:Hi:Step):(  36:  -3:  -1)
(PID.TID 0000.0001) // RANGE K (Lo:Hi:Step):(   1:   1:   1)
(PID.TID 0000.0001) // =======================================================
(PID.TID 0000.0001) // =======================================================
(PID.TID 0000.0001) // END OF FIELD                                          =
(PID.TID 0000.0001) // =======================================================
(PID.TID 0000.0001) 
(PID.TID 0000.0001) 
(PID.TID 0000.0001) // ===================================
(PID.TID 0000.0001) // GAD parameters :
(PID.TID 0000.0001) // ===================================
(PID.TID 0000.0001) tempAdvScheme =   /* Temp. Horiz.Advection scheme selector */
(PID.TID 0000.0001)                      33
(PID.TID 0000.0001)     ;
(PID.TID 0000.0001) tempVertAdvScheme =   /* Temp. Vert. Advection scheme selector */
(PID.TID 0000.0001)                      33
(PID.TID 0000.0001)     ;
(PID.TID 0000.0001) tempMultiDimAdvec =   /* use Muti-Dim Advec method for Temp */
(PID.TID 0000.0001)                   T
(PID.TID 0000.0001)     ;
(PID.TID 0000.0001) tempAdamsBashforth =   /* use Adams-Bashforth time-stepping for Temp */
(PID.TID 0000.0001)                   F
(PID.TID 0000.0001)     ;
(PID.TID 0000.0001) saltAdvScheme =   /* Salt. Horiz.advection scheme selector */
(PID.TID 0000.0001)                      33
(PID.TID 0000.0001)     ;
(PID.TID 0000.0001) saltVertAdvScheme =   /* Salt. Vert. Advection scheme selector */
(PID.TID 0000.0001)                      33
(PID.TID 0000.0001)     ;
(PID.TID 0000.0001) saltMultiDimAdvec =   /* use Muti-Dim Advec method for Salt */
(PID.TID 0000.0001)                   T
(PID.TID 0000.0001)     ;
(PID.TID 0000.0001) saltAdamsBashforth =   /* use Adams-Bashforth time-stepping for Salt */
(PID.TID 0000.0001)                   F
(PID.TID 0000.0001)     ;
(PID.TID 0000.0001) // ===================================
(PID.TID 0000.0001) %MON fCori_max                    =   1.4535016908525E-04
(PID.TID 0000.0001) %MON fCori_min                    =  -1.4535016908525E-04
(PID.TID 0000.0001) %MON fCori_mean                   =   0.0000000000000E+00
(PID.TID 0000.0001) %MON fCori_sd                     =   8.3972192788621E-05
(PID.TID 0000.0001) %MON fCoriG_max                   =   1.4544410433286E-04
(PID.TID 0000.0001) %MON fCoriG_min                   =  -1.4544410433286E-04
(PID.TID 0000.0001) %MON fCoriG_mean                  =   0.0000000000000E+00
(PID.TID 0000.0001) %MON fCoriG_sd                    =   8.4860812167727E-05
(PID.TID 0000.0001) %MON fCoriCos_max                 =   1.4540341538469E-04
(PID.TID 0000.0001) %MON fCoriCos_min                 =   5.2264550201501E-06
(PID.TID 0000.0001) %MON fCoriCos_mean                =   1.1482595466044E-04
(PID.TID 0000.0001) %MON fCoriCos_sd                  =   3.0292878037194E-05
(PID.TID 0000.0001) // CG2D normalisation factor =          0.9911960384346747761244271E-05
(PID.TID 0000.0001) 
(PID.TID 0000.0001) CONFIG_CHECK: OK
(PID.TID 0000.0001) // =======================================================
(PID.TID 0000.0001) // Model configuration
(PID.TID 0000.0001) // =======================================================
(PID.TID 0000.0001) //
(PID.TID 0000.0001) // "Physical" paramters ( PARM01 in namelist )
(PID.TID 0000.0001) //
(PID.TID 0000.0001) buoyancyRelation = OCEANIC
(PID.TID 0000.0001) fluidIsAir  =  /* fluid major constituent is Air */
(PID.TID 0000.0001)                   F
(PID.TID 0000.0001)     ;
(PID.TID 0000.0001) fluidIsWater=  /* fuild major constituent is Water */
(PID.TID 0000.0001)                   T
(PID.TID 0000.0001)     ;
(PID.TID 0000.0001) usingPCoords =  /* use p (or p*) vertical coordinate */
(PID.TID 0000.0001)                   F
(PID.TID 0000.0001)     ;
(PID.TID 0000.0001) usingZCoords =  /* use z (or z*) vertical coordinate */
(PID.TID 0000.0001)                   T
(PID.TID 0000.0001)     ;
(PID.TID 0000.0001) tRef =   /* Reference temperature profile ( oC or oK ) */
(PID.TID 0000.0001)                 0.000000000000000E+00       /* K =  1 */
(PID.TID 0000.0001)     ;
(PID.TID 0000.0001) sRef =   /* Reference salinity profile ( ppt ) */
(PID.TID 0000.0001)                 0.000000000000000E+00       /* K =  1 */
(PID.TID 0000.0001)     ;
(PID.TID 0000.0001) viscAh =   /* Lateral eddy viscosity ( m^2/s ) */
(PID.TID 0000.0001)                 0.000000000000000E+00
(PID.TID 0000.0001)     ;
(PID.TID 0000.0001) viscAhMax =   /* Maximum lateral eddy viscosity ( m^2/s ) */
(PID.TID 0000.0001)                 1.000000000000000E+21
(PID.TID 0000.0001)     ;
(PID.TID 0000.0001) viscAhGrid =   /* Grid dependent lateral eddy viscosity ( non-dim. ) */
(PID.TID 0000.0001)                 0.000000000000000E+00
(PID.TID 0000.0001)     ;
(PID.TID 0000.0001) viscC2leith =   /* Leith harmonic viscosity factor ( non-dom. ) */
(PID.TID 0000.0001)                 0.000000000000000E+00
(PID.TID 0000.0001)     ;
(PID.TID 0000.0001) viscA4 =   /* Lateral biharmonic viscosity ( m^4/s ) */
(PID.TID 0000.0001)                 0.000000000000000E+00
(PID.TID 0000.0001)     ;
(PID.TID 0000.0001) viscA4Max =   /* Maximum biharmonic viscosity ( m^2/s ) */
(PID.TID 0000.0001)                 1.000000000000000E+21
(PID.TID 0000.0001)     ;
(PID.TID 0000.0001) viscA4Grid =   /* Grid dependent biharmonic viscosity ( non-dim. ) */
(PID.TID 0000.0001)                 0.000000000000000E+00
(PID.TID 0000.0001)     ;
(PID.TID 0000.0001) viscC4leith =   /* Leith biharmonic viscosity factor ( non-dom. ) */
(PID.TID 0000.0001)                 0.000000000000000E+00
(PID.TID 0000.0001)     ;
(PID.TID 0000.0001) no_slip_sides =  /* Viscous BCs: No-slip sides */
(PID.TID 0000.0001)                   T
(PID.TID 0000.0001)     ;
(PID.TID 0000.0001) viscAr =   /* Vertical eddy viscosity ( units of r^2/s ) */
(PID.TID 0000.0001)                 0.000000000000000E+00
(PID.TID 0000.0001)     ;
(PID.TID 0000.0001) no_slip_bottom =  /* Viscous BCs: No-slip bottom */
(PID.TID 0000.0001)                   T
(PID.TID 0000.0001)     ;
(PID.TID 0000.0001) diffKhT =   /* Laplacian diffusion of heat laterally ( m^2/s ) */
(PID.TID 0000.0001)                 0.000000000000000E+00
(PID.TID 0000.0001)     ;
(PID.TID 0000.0001) diffK4T =   /* Bihaarmonic diffusion of heat laterally ( m^4/s ) */
(PID.TID 0000.0001)                 0.000000000000000E+00
(PID.TID 0000.0001)     ;
(PID.TID 0000.0001) diffKhS =   /* Laplacian diffusion of salt laterally ( m^2/s ) */
(PID.TID 0000.0001)                 0.000000000000000E+00
(PID.TID 0000.0001)     ;
(PID.TID 0000.0001) diffK4S =   /* Bihaarmonic diffusion of salt laterally ( m^4/s ) */
(PID.TID 0000.0001)                 0.000000000000000E+00
(PID.TID 0000.0001)     ;
(PID.TID 0000.0001) diffKrNrT = /* vertical profile of vertical diffusion of Temp ( m^2/s )*/
(PID.TID 0000.0001)                 0.000000000000000E+00       /* K =  1 */
(PID.TID 0000.0001)     ;
(PID.TID 0000.0001) diffKrNrS = /* vertical profile of vertical diffusion of Salt ( m^2/s )*/
(PID.TID 0000.0001)                 0.000000000000000E+00       /* K =  1 */
(PID.TID 0000.0001)     ;
(PID.TID 0000.0001) diffKrBL79surf =   /* Surface diffusion for Bryan and Lewis 1979 ( m^2/s ) */
(PID.TID 0000.0001)                 0.000000000000000E+00
(PID.TID 0000.0001)     ;
(PID.TID 0000.0001) diffKrBL79deep =   /* Deep diffusion for Bryan and Lewis 1979 ( m^2/s ) */
(PID.TID 0000.0001)                 0.000000000000000E+00
(PID.TID 0000.0001)     ;
(PID.TID 0000.0001) diffKrBL79scl =   /* Depth scale for Bryan and Lewis 1979 ( m ) */
(PID.TID 0000.0001)                 2.000000000000000E+02
(PID.TID 0000.0001)     ;
(PID.TID 0000.0001) diffKrBL79Ho =   /* Turning depth for Bryan and Lewis 1979 ( m ) */
(PID.TID 0000.0001)                -2.000000000000000E+03
(PID.TID 0000.0001)     ;
(PID.TID 0000.0001)  Equation of State : eosType = LINEAR
(PID.TID 0000.0001) tAlpha =   /* Linear EOS thermal expansion coefficient ( 1/degree ) */
(PID.TID 0000.0001)                 2.000000000000000E-04
(PID.TID 0000.0001)     ;
(PID.TID 0000.0001) sBeta =   /* Linear EOS haline contraction coefficient ( 1/ppt ) */
(PID.TID 0000.0001)                 7.400000000000000E-04
(PID.TID 0000.0001)     ;
(PID.TID 0000.0001) rhonil =   /* Reference density ( kg/m^3 ) */
(PID.TID 0000.0001)                 9.998000000000000E+02
(PID.TID 0000.0001)     ;
(PID.TID 0000.0001) rhoConst =   /* Reference density ( kg/m^3 ) */
(PID.TID 0000.0001)                 9.998000000000000E+02
(PID.TID 0000.0001)     ;
(PID.TID 0000.0001) rhoConstFresh =   /* Reference density ( kg/m^3 ) */
(PID.TID 0000.0001)                 9.998000000000000E+02
(PID.TID 0000.0001)     ;
(PID.TID 0000.0001) gravity =   /* Gravitational acceleration ( m/s^2 ) */
(PID.TID 0000.0001)                 9.810000000000000E+00
(PID.TID 0000.0001)     ;
(PID.TID 0000.0001) gBaro =   /* Barotropic gravity ( m/s^2 ) */
(PID.TID 0000.0001)                 9.810000000000000E+00
(PID.TID 0000.0001)     ;
(PID.TID 0000.0001) rotationPeriod =   /* Rotation Period ( s ) */
(PID.TID 0000.0001)                 8.640000000000000E+04
(PID.TID 0000.0001)     ;
(PID.TID 0000.0001) omega =   /* Angular velocity ( rad/s ) */
(PID.TID 0000.0001)                 7.272205216643040E-05
(PID.TID 0000.0001)     ;
(PID.TID 0000.0001) f0 =   /* Reference coriolis parameter ( 1/s ) */
(PID.TID 0000.0001)                 1.000000000000000E-04
(PID.TID 0000.0001)     ;
(PID.TID 0000.0001) beta =   /* Beta ( 1/(m.s) ) */
(PID.TID 0000.0001)                 9.999999999999999E-12
(PID.TID 0000.0001)     ;
(PID.TID 0000.0001) freeSurfFac =   /* Implicit free surface factor */
(PID.TID 0000.0001)                 1.000000000000000E+00
(PID.TID 0000.0001)     ;
(PID.TID 0000.0001) implicitFreeSurface =   /* Implicit free surface on/off flag */
(PID.TID 0000.0001)                   T
(PID.TID 0000.0001)     ;
(PID.TID 0000.0001) rigidLid =   /* Rigid lid on/off flag */
(PID.TID 0000.0001)                   F
(PID.TID 0000.0001)     ;
(PID.TID 0000.0001) implicSurfPress =   /* Surface Pressure implicit factor (0-1)*/
(PID.TID 0000.0001)                 1.000000000000000E+00
(PID.TID 0000.0001)     ;
(PID.TID 0000.0001) implicDiv2Dflow =   /* Barot. Flow Div. implicit factor (0-1)*/
(PID.TID 0000.0001)                 1.000000000000000E+00
(PID.TID 0000.0001)     ;
(PID.TID 0000.0001) exactConserv =   /* Exact Volume Conservation on/off flag*/
(PID.TID 0000.0001)                   F
(PID.TID 0000.0001)     ;
(PID.TID 0000.0001) uniformLin_PhiSurf =   /* use uniform Bo_surf on/off flag*/
(PID.TID 0000.0001)                   T
(PID.TID 0000.0001)     ;
(PID.TID 0000.0001) nonlinFreeSurf =   /* Non-linear Free Surf. options (-1,0,1,2,3)*/
(PID.TID 0000.0001)                       0
(PID.TID 0000.0001)     ;
(PID.TID 0000.0001)      -1,0= Off ; 1,2,3= On, 2=+rescale gU,gV, 3=+update cg2d solv.
(PID.TID 0000.0001) hFacInf =   /* lower threshold for hFac (nonlinFreeSurf only)*/
(PID.TID 0000.0001)                 2.000000000000000E-01
(PID.TID 0000.0001)     ;
(PID.TID 0000.0001) hFacSup =   /* upper threshold for hFac (nonlinFreeSurf only)*/
(PID.TID 0000.0001)                 2.000000000000000E+00
(PID.TID 0000.0001)     ;
(PID.TID 0000.0001) select_rStar =   /* r* Coordinate options (not yet implemented)*/
(PID.TID 0000.0001)                       0
(PID.TID 0000.0001)     ;
(PID.TID 0000.0001) useRealFreshWaterFlux =   /* Real Fresh Water Flux on/off flag*/
(PID.TID 0000.0001)                   F
(PID.TID 0000.0001)     ;
(PID.TID 0000.0001) convertFW2Salt = /* convert F.W. Flux to Salt Flux (-1=use local S)(ppt)*/
(PID.TID 0000.0001)                 3.500000000000000E+01
(PID.TID 0000.0001)     ;
(PID.TID 0000.0001) nonHydrostatic =  /* Non-Hydrostatic on/off flag */
(PID.TID 0000.0001)                   F
(PID.TID 0000.0001)     ;
(PID.TID 0000.0001) momStepping =  /* Momentum equation on/off flag */
(PID.TID 0000.0001)                   F
(PID.TID 0000.0001)     ;
(PID.TID 0000.0001) momAdvection =  /* Momentum advection on/off flag */
(PID.TID 0000.0001)                   F
(PID.TID 0000.0001)     ;
(PID.TID 0000.0001) momViscosity =  /* Momentum viscosity on/off flag */
(PID.TID 0000.0001)                   F
(PID.TID 0000.0001)     ;
(PID.TID 0000.0001) momImplVertAdv =/* Momentum implicit vert. advection on/off*/
(PID.TID 0000.0001)                   F
(PID.TID 0000.0001)     ;
(PID.TID 0000.0001) implicitViscosity = /* Implicit viscosity on/off flag */
(PID.TID 0000.0001)                   F
(PID.TID 0000.0001)     ;
(PID.TID 0000.0001) useCoriolis =  /* Coriolis on/off flag */
(PID.TID 0000.0001)                   F
(PID.TID 0000.0001)     ;
(PID.TID 0000.0001) useCDscheme =  /* CD scheme on/off flag */
(PID.TID 0000.0001)                   F
(PID.TID 0000.0001)     ;
(PID.TID 0000.0001) useJamartWetPoints= /* Coriolis WetPoints method flag */
(PID.TID 0000.0001)                   F
(PID.TID 0000.0001)     ;
(PID.TID 0000.0001) useJamartMomAdv= /* V.I. Non-linear terms Jamart flag */
(PID.TID 0000.0001)                   F
(PID.TID 0000.0001)     ;
(PID.TID 0000.0001) SadournyCoriolis= /* Sadourny Coriolis discr. flag */
(PID.TID 0000.0001)                   F
(PID.TID 0000.0001)     ;
(PID.TID 0000.0001) upwindVorticity= /* Upwind bias vorticity flag */
(PID.TID 0000.0001)                   F
(PID.TID 0000.0001)     ;
(PID.TID 0000.0001) useAbsVorticity= /* Work with f+zeta in Coriolis */
(PID.TID 0000.0001)                   F
(PID.TID 0000.0001)     ;
(PID.TID 0000.0001) highOrderVorticity= /* High order interp. of vort. flag */
(PID.TID 0000.0001)                   F
(PID.TID 0000.0001)     ;
(PID.TID 0000.0001) momForcing =  /* Momentum forcing on/off flag */
(PID.TID 0000.0001)                   F
(PID.TID 0000.0001)     ;
(PID.TID 0000.0001) momPressureForcing =  /* Momentum pressure term on/off flag */
(PID.TID 0000.0001)                   F
(PID.TID 0000.0001)     ;
(PID.TID 0000.0001) staggerTimeStep =   /* Stagger time stepping on/off flag */
(PID.TID 0000.0001)                   F
(PID.TID 0000.0001)     ;
(PID.TID 0000.0001) multiDimAdvection =   /* enable/disable Multi-Dim Advection */
(PID.TID 0000.0001)                   T
(PID.TID 0000.0001)     ;
(PID.TID 0000.0001) useMultiDimAdvec =   /* Multi-Dim Advection is/is-not used */
(PID.TID 0000.0001)                   T
(PID.TID 0000.0001)     ;
(PID.TID 0000.0001) implicitDiffusion =/* Implicit Diffusion on/off flag */
(PID.TID 0000.0001)                   F
(PID.TID 0000.0001)     ;
(PID.TID 0000.0001) tempStepping =  /* Temperature equation on/off flag */
(PID.TID 0000.0001)                   T
(PID.TID 0000.0001)     ;
(PID.TID 0000.0001) tempAdvection=  /* Temperature advection on/off flag */
(PID.TID 0000.0001)                   T
(PID.TID 0000.0001)     ;
(PID.TID 0000.0001) tempImplVertAdv =/* Temp. implicit vert. advection on/off */
(PID.TID 0000.0001)                   F
(PID.TID 0000.0001)     ;
(PID.TID 0000.0001) tempForcing  =  /* Temperature forcing on/off flag */
(PID.TID 0000.0001)                   T
(PID.TID 0000.0001)     ;
(PID.TID 0000.0001) saltStepping =  /* Salinity equation on/off flag */
(PID.TID 0000.0001)                   T
(PID.TID 0000.0001)     ;
(PID.TID 0000.0001) saltAdvection=  /* Salinity advection on/off flag */
(PID.TID 0000.0001)                   T
(PID.TID 0000.0001)     ;
(PID.TID 0000.0001) saltImplVertAdv =/* Sali. implicit vert. advection on/off */
(PID.TID 0000.0001)                   F
(PID.TID 0000.0001)     ;
(PID.TID 0000.0001) saltForcing  =  /* Salinity forcing on/off flag */
(PID.TID 0000.0001)                   T
(PID.TID 0000.0001)     ;
(PID.TID 0000.0001) //
(PID.TID 0000.0001) // Elliptic solver(s) paramters ( PARM02 in namelist )
(PID.TID 0000.0001) //
(PID.TID 0000.0001) cg2dMaxIters =   /* Upper limit on 2d con. grad iterations  */
(PID.TID 0000.0001)                     600
(PID.TID 0000.0001)     ;
(PID.TID 0000.0001) cg2dChkResFreq =   /* 2d con. grad convergence test frequency */
(PID.TID 0000.0001)                       1
(PID.TID 0000.0001)     ;
(PID.TID 0000.0001) cg2dTargetResidual =   /* 2d con. grad target residual  */
(PID.TID 0000.0001)                 1.000000000000000E-12
(PID.TID 0000.0001)     ;
(PID.TID 0000.0001) cg2dTargetResWunit =   /* CG2d target residual [W units] */
(PID.TID 0000.0001)                -1.000000000000000E+00
(PID.TID 0000.0001)     ;
(PID.TID 0000.0001) cg2dPreCondFreq =   /* Freq. for updating cg2d preconditioner */
(PID.TID 0000.0001)                       1
(PID.TID 0000.0001)     ;
(PID.TID 0000.0001) //
(PID.TID 0000.0001) // Time stepping paramters ( PARM03 in namelist )
(PID.TID 0000.0001) //
(PID.TID 0000.0001) nIter0 =   /* Base timestep number  */
(PID.TID 0000.0001)                       0
(PID.TID 0000.0001)     ;
(PID.TID 0000.0001) nTimeSteps =   /* Number of timesteps */
(PID.TID 0000.0001)                     288
(PID.TID 0000.0001)     ;
(PID.TID 0000.0001) deltatTmom =   /* Momentum equation timestep ( s ) */
(PID.TID 0000.0001)                 3.600000000000000E+03
(PID.TID 0000.0001)     ;
(PID.TID 0000.0001) deltaTfreesurf =   /* FreeSurface equation timestep ( s ) */
(PID.TID 0000.0001)                 3.600000000000000E+03
(PID.TID 0000.0001)     ;
(PID.TID 0000.0001) dTtracerLev =   /* Tracer equation timestep ( s ) */
(PID.TID 0000.0001)                 3.600000000000000E+03       /* K =  1 */
(PID.TID 0000.0001)     ;
(PID.TID 0000.0001) deltatTClock  =   /* Model clock timestep ( s ) */
(PID.TID 0000.0001)                 3.600000000000000E+03
(PID.TID 0000.0001)     ;
(PID.TID 0000.0001) cAdjFreq =   /* Convective adjustment interval ( s ) */
(PID.TID 0000.0001)                 0.000000000000000E+00
(PID.TID 0000.0001)     ;
(PID.TID 0000.0001) forcing_In_AB =   /* put T,S Forcing in Adams-Bash. stepping */
(PID.TID 0000.0001)                   T
(PID.TID 0000.0001)     ;
(PID.TID 0000.0001) abeps =   /* Adams-Bashforth stabilizing weight */
(PID.TID 0000.0001)                 1.000000000000000E-01
(PID.TID 0000.0001)     ;
(PID.TID 0000.0001) startTime =   /* Run start time ( s ). */
(PID.TID 0000.0001)                 0.000000000000000E+00
(PID.TID 0000.0001)     ;
(PID.TID 0000.0001) endTime =   /* Integration ending time ( s ). */
(PID.TID 0000.0001)                 1.036800000000000E+06
(PID.TID 0000.0001)     ;
(PID.TID 0000.0001) pChkPtFreq =   /* Permanent restart/checkpoint file interval ( s ). */
(PID.TID 0000.0001)                 0.000000000000000E+00
(PID.TID 0000.0001)     ;
(PID.TID 0000.0001) chkPtFreq =   /* Rolling restart/checkpoint file interval ( s ). */
(PID.TID 0000.0001)                 0.000000000000000E+00
(PID.TID 0000.0001)     ;
(PID.TID 0000.0001) pickup_write_mdsio =   /* Model IO flag. */
(PID.TID 0000.0001)                   T
(PID.TID 0000.0001)     ;
(PID.TID 0000.0001) pickup_read_mdsio =   /* Model IO flag. */
(PID.TID 0000.0001)                   T
(PID.TID 0000.0001)     ;
(PID.TID 0000.0001) pickup_write_immed =   /* Model IO flag. */
(PID.TID 0000.0001)                   F
(PID.TID 0000.0001)     ;
(PID.TID 0000.0001) dumpFreq =   /* Model state write out interval ( s ). */
(PID.TID 0000.0001)                 8.640000000000000E+04
(PID.TID 0000.0001)     ;
(PID.TID 0000.0001) snapshot_mdsio =   /* Model IO flag. */
(PID.TID 0000.0001)                   T
(PID.TID 0000.0001)     ;
(PID.TID 0000.0001) monitorFreq =   /* Monitor output interval ( s ). */
(PID.TID 0000.0001)                 2.160000000000000E+04
(PID.TID 0000.0001)     ;
(PID.TID 0000.0001) monitor_stdio =   /* Model IO flag. */
(PID.TID 0000.0001)                   T
(PID.TID 0000.0001)     ;
(PID.TID 0000.0001) externForcingPeriod =   /* forcing period (s) */
(PID.TID 0000.0001)                 0.000000000000000E+00
(PID.TID 0000.0001)     ;
(PID.TID 0000.0001) externForcingCycle =   /* period of the cyle (s). */
(PID.TID 0000.0001)                 0.000000000000000E+00
(PID.TID 0000.0001)     ;
(PID.TID 0000.0001) tauThetaClimRelax =   /* relaxation time scale (s) */
(PID.TID 0000.0001)                 0.000000000000000E+00
(PID.TID 0000.0001)     ;
(PID.TID 0000.0001) tauSaltClimRelax =   /* relaxation time scale (s) */
(PID.TID 0000.0001)                 0.000000000000000E+00
(PID.TID 0000.0001)     ;
(PID.TID 0000.0001) latBandClimRelax =   /* max. Lat. where relaxation */
(PID.TID 0000.0001)                 1.800000000000000E+02
(PID.TID 0000.0001)     ;
(PID.TID 0000.0001) //
(PID.TID 0000.0001) // Gridding paramters ( PARM04 in namelist )
(PID.TID 0000.0001) //
(PID.TID 0000.0001) usingCartesianGrid =   /* Cartesian coordinates flag ( True / False ) */
(PID.TID 0000.0001)                   F
(PID.TID 0000.0001)     ;
(PID.TID 0000.0001) usingSphericalPolarGrid =   /* Spherical coordinates flag ( True / False ) */
(PID.TID 0000.0001)                   F
(PID.TID 0000.0001)     ;
(PID.TID 0000.0001) usingCylindricalGrid =   /* Spherical coordinates flag ( True / False ) */
(PID.TID 0000.0001)                   F
(PID.TID 0000.0001)     ;
(PID.TID 0000.0001) groundAtK1 =   /* Lower Boundary (ground) at the surface(k=1) ( T / F ) */
(PID.TID 0000.0001)                   T
(PID.TID 0000.0001)     ;
(PID.TID 0000.0001) Ro_SeaLevel =   /* r(1) ( units of r ) */
(PID.TID 0000.0001)                 1.000000000000000E+05
(PID.TID 0000.0001)     ;
(PID.TID 0000.0001) rkFac =   /* minus Vertical index orientation  */
(PID.TID 0000.0001)                 1.000000000000000E+00
(PID.TID 0000.0001)     ;
(PID.TID 0000.0001) horiVertRatio =   /* Ratio on units : Horiz - Vertical */
(PID.TID 0000.0001)                 1.000000000000000E+00
(PID.TID 0000.0001)     ;
(PID.TID 0000.0001) drC =   /* C spacing ( units of r ) */
(PID.TID 0000.0001)                 5.000000000000000E+04       /* K =  1 */
(PID.TID 0000.0001)     ;
(PID.TID 0000.0001) drF =   /* W spacing ( units of r ) */
(PID.TID 0000.0001)                 1.000000000000000E+05       /* K =  1 */
(PID.TID 0000.0001)     ;
(PID.TID 0000.0001) delX =   /* U spacing ( m - cartesian, degrees - spherical ) */
(PID.TID 0000.0001)   192 @  1.234567000000000E+05              /* I =  1:192 */
(PID.TID 0000.0001)     ;
(PID.TID 0000.0001) delY =   /* V spacing ( m - cartesian, degrees - spherical ) */
(PID.TID 0000.0001)    32 @  1.234567000000000E+05              /* J =  1: 32 */
(PID.TID 0000.0001)     ;
(PID.TID 0000.0001) phiMin =    /* South edge (ignored - cartesian, degrees - spherical ) */
(PID.TID 0000.0001)                 0.000000000000000E+00
(PID.TID 0000.0001)     ;
(PID.TID 0000.0001) thetaMin =    /* West edge ( ignored - cartesian, degrees - spherical ) */
(PID.TID 0000.0001)                 0.000000000000000E+00
(PID.TID 0000.0001)     ;
(PID.TID 0000.0001) rSphere =    /* Radius ( ignored - cartesian, m - spherical ) */
(PID.TID 0000.0001)                 6.370000000000000E+06
(PID.TID 0000.0001)     ;
(PID.TID 0000.0001) xcoord =   /* P-point X coord ( m - cartesian, degrees - spherical ) */
(PID.TID 0000.0001)                -4.439521994760536E+01,      /* I =  1 */
(PID.TID 0000.0001)                -4.295641272275883E+01,      /* I =  2 */
(PID.TID 0000.0001)                -4.122055553388957E+01,      /* I =  3 */
(PID.TID 0000.0001)                -3.923446288487304E+01,      /* I =  4 */
(PID.TID 0000.0001)                -3.702585158682200E+01,      /* I =  5 */
(PID.TID 0000.0001)                -3.461179367094151E+01,      /* I =  6 */
(PID.TID 0000.0001)                -3.200434569041793E+01,      /* I =  7 */
(PID.TID 0000.0001)                -2.921355965632675E+01,      /* I =  8 */
(PID.TID 0000.0001)                -2.624932223028290E+01,      /* I =  9 */
(PID.TID 0000.0001)                -2.312261250426344E+01,      /* I = 10 */
(PID.TID 0000.0001)                -1.984640717127058E+01,      /* I = 11 */
(PID.TID 0000.0001)                -1.643630800555134E+01,      /* I = 12 */
(PID.TID 0000.0001)                -1.291089806302069E+01,      /* I = 13 */
(PID.TID 0000.0001)                -9.291807802719402E+00,      /* I = 14 */
(PID.TID 0000.0001)                -5.603475335822332E+00,      /* I = 15 */
(PID.TID 0000.0001)                -1.872608513033445E+00,      /* I = 16 */
(PID.TID 0000.0001)                 1.872608513033445E+00,      /* I = 17 */
(PID.TID 0000.0001)                 5.603475335822332E+00,      /* I = 18 */
(PID.TID 0000.0001)                 9.291807802719402E+00,      /* I = 19 */
(PID.TID 0000.0001)                 1.291089806302069E+01,      /* I = 20 */
(PID.TID 0000.0001)                 1.643630800555134E+01,      /* I = 21 */
(PID.TID 0000.0001)                 1.984640717127058E+01,      /* I = 22 */
(PID.TID 0000.0001)                 2.312261250426344E+01,      /* I = 23 */
(PID.TID 0000.0001)                 2.624932223028290E+01,      /* I = 24 */
(PID.TID 0000.0001)                 2.921355965632675E+01,      /* I = 25 */
(PID.TID 0000.0001)                 3.200434569041793E+01,      /* I = 26 */
(PID.TID 0000.0001)                 3.461179367094151E+01,      /* I = 27 */
(PID.TID 0000.0001)                 3.702585158682200E+01,      /* I = 28 */
(PID.TID 0000.0001)                 3.923446288487304E+01,      /* I = 29 */
(PID.TID 0000.0001)                 4.122055553388957E+01,      /* I = 30 */
(PID.TID 0000.0001)                 4.295641272275883E+01,      /* I = 31 */
(PID.TID 0000.0001)                 4.439521994760536E+01,      /* I = 32 */
(PID.TID 0000.0001)                 4.560478005239464E+01,      /* I = 33 */
(PID.TID 0000.0001)                 4.704358727724117E+01,      /* I = 34 */
(PID.TID 0000.0001)                 4.877944446611043E+01,      /* I = 35 */
(PID.TID 0000.0001)                 5.076553711512697E+01,      /* I = 36 */
(PID.TID 0000.0001)                 5.297414841317801E+01,      /* I = 37 */
(PID.TID 0000.0001)                 5.538820632905850E+01,      /* I = 38 */
(PID.TID 0000.0001)                 5.799565430958209E+01,      /* I = 39 */
(PID.TID 0000.0001)                 6.078644034367325E+01,      /* I = 40 */
(PID.TID 0000.0001)                 6.375067776971711E+01,      /* I = 41 */
(PID.TID 0000.0001)                 6.687738749573657E+01,      /* I = 42 */
(PID.TID 0000.0001)                 7.015359282872943E+01,      /* I = 43 */
(PID.TID 0000.0001)                 7.356369199444866E+01,      /* I = 44 */
(PID.TID 0000.0001)                 7.708910193697932E+01,      /* I = 45 */
(PID.TID 0000.0001)                 8.070819219728060E+01,      /* I = 46 */
(PID.TID 0000.0001)                 8.439652466417766E+01,      /* I = 47 */
(PID.TID 0000.0001)                 8.812739148696656E+01,      /* I = 48 */
(PID.TID 0000.0001)                 9.187260851303344E+01,      /* I = 49 */
(PID.TID 0000.0001)                 9.560347533582234E+01,      /* I = 50 */
(PID.TID 0000.0001)                 9.929180780271940E+01,      /* I = 51 */
(PID.TID 0000.0001)                 1.029108980630207E+02,      /* I = 52 */
(PID.TID 0000.0001)                 1.064363080055513E+02,      /* I = 53 */
(PID.TID 0000.0001)                 1.098464071712706E+02,      /* I = 54 */
(PID.TID 0000.0001)                 1.131226125042634E+02,      /* I = 55 */
(PID.TID 0000.0001)                 1.162493222302829E+02,      /* I = 56 */
(PID.TID 0000.0001)                 1.192135596563268E+02,      /* I = 57 */
(PID.TID 0000.0001)                 1.220043456904179E+02,      /* I = 58 */
(PID.TID 0000.0001)                 1.246117936709415E+02,      /* I = 59 */
(PID.TID 0000.0001)                 1.270258515868220E+02,      /* I = 60 */
(PID.TID 0000.0001)                 1.292344628848730E+02,      /* I = 61 */
(PID.TID 0000.0001)                 1.312205555338896E+02,      /* I = 62 */
(PID.TID 0000.0001)                 1.329564127227588E+02,      /* I = 63 */
(PID.TID 0000.0001)                 1.343952199476053E+02,      /* I = 64 */
(PID.TID 0000.0001)                 4.500000000000000E+01,      /* I = 65 */
(PID.TID 0000.0001)                 4.620805468796297E+01,      /* I = 66 */
(PID.TID 0000.0001)                 4.781369642513039E+01,      /* I = 67 */
(PID.TID 0000.0001)                 4.971767671143929E+01,      /* I = 68 */
(PID.TID 0000.0001)                 5.187738319787235E+01,      /* I = 69 */
(PID.TID 0000.0001)                 5.427004371478710E+01,      /* I = 70 */
(PID.TID 0000.0001)                 5.688128325334060E+01,      /* I = 71 */
(PID.TID 0000.0001)                 5.970018167786760E+01,      /* I = 72 */
(PID.TID 0000.0001)                 6.271654991792347E+01,      /* I = 73 */
(PID.TID 0000.0001)                 6.591914604853015E+01,      /* I = 74 */
(PID.TID 0000.0001)                 6.929439270484148E+01,      /* I = 75 */
(PID.TID 0000.0001)                 7.282545807616151E+01,      /* I = 76 */
(PID.TID 0000.0001)                 7.649168830618933E+01,      /* I = 77 */
(PID.TID 0000.0001)                 8.026842803787176E+01,      /* I = 78 */
(PID.TID 0000.0001)                 8.412726743124185E+01,      /* I = 79 */
(PID.TID 0000.0001)                 8.803672008547504E+01,      /* I = 80 */
(PID.TID 0000.0001)                 9.196327991452496E+01,      /* I = 81 */
(PID.TID 0000.0001)                 9.587273256875815E+01,      /* I = 82 */
(PID.TID 0000.0001)                 9.973157196212824E+01,      /* I = 83 */
(PID.TID 0000.0001)                 1.035083116938107E+02,      /* I = 84 */
(PID.TID 0000.0001)                 1.071745419238385E+02,      /* I = 85 */
(PID.TID 0000.0001)                 1.107056072951585E+02,      /* I = 86 */
(PID.TID 0000.0001)                 1.140808539514698E+02,      /* I = 87 */
(PID.TID 0000.0001)                 1.172834500820765E+02,      /* I = 88 */
(PID.TID 0000.0001)                 1.202998183221324E+02,      /* I = 89 */
(PID.TID 0000.0001)                 1.231187167466594E+02,      /* I = 90 */
(PID.TID 0000.0001)                 1.257299562852129E+02,      /* I = 91 */
(PID.TID 0000.0001)                 1.281226168021277E+02,      /* I = 92 */
(PID.TID 0000.0001)                 1.302823232885607E+02,      /* I = 93 */
(PID.TID 0000.0001)                 1.321863035748696E+02,      /* I = 94 */
(PID.TID 0000.0001)                 1.337919453120370E+02,      /* I = 95 */
(PID.TID 0000.0001)                 1.350000000000000E+02,      /* I = 96 */
(PID.TID 0000.0001)                 1.356047800523947E+02,      /* I = 97 */
(PID.TID 0000.0001)                 1.358367907661329E+02,      /* I = 98 */
(PID.TID 0000.0001)                 1.359720382181193E+02,      /* I = 99 */
(PID.TID 0000.0001)                 1.360654656901789E+02,      /* I =100 */
(PID.TID 0000.0001)                 1.361344533147042E+02,      /* I =101 */
(PID.TID 0000.0001)                 1.361871219420981E+02,      /* I =102 */
(PID.TID 0000.0001)                 1.362280794509603E+02,      /* I =103 */
(PID.TID 0000.0001)                 1.362602511071934E+02,      /* I =104 */
(PID.TID 0000.0001)                 1.362856280326734E+02,      /* I =105 */
(PID.TID 0000.0001)                 1.363056266270901E+02,      /* I =106 */
(PID.TID 0000.0001)                 1.363212817739446E+02,      /* I =107 */
(PID.TID 0000.0001)                 1.363333595910255E+02,      /* I =108 */
(PID.TID 0000.0001)                 1.363424272425760E+02,      /* I =109 */
(PID.TID 0000.0001)                 1.363488978790713E+02,      /* I =110 */
(PID.TID 0000.0001)                 1.363530600590580E+02,      /* I =111 */
(PID.TID 0000.0001)     2 @  1.363550967500717E+02,             /* I =112:113 */
(PID.TID 0000.0001)                 1.363530600590580E+02,      /* I =114 */
(PID.TID 0000.0001)                 1.363488978790713E+02,      /* I =115 */
(PID.TID 0000.0001)                 1.363424272425760E+02,      /* I =116 */
(PID.TID 0000.0001)                 1.363333595910255E+02,      /* I =117 */
(PID.TID 0000.0001)                 1.363212817739446E+02,      /* I =118 */
(PID.TID 0000.0001)                 1.363056266270901E+02,      /* I =119 */
(PID.TID 0000.0001)                 1.362856280326734E+02,      /* I =120 */
(PID.TID 0000.0001)                 1.362602511071934E+02,      /* I =121 */
(PID.TID 0000.0001)                 1.362280794509603E+02,      /* I =122 */
(PID.TID 0000.0001)                 1.361871219420981E+02,      /* I =123 */
(PID.TID 0000.0001)                 1.361344533147042E+02,      /* I =124 */
(PID.TID 0000.0001)                 1.360654656901789E+02,      /* I =125 */
(PID.TID 0000.0001)                 1.359720382181193E+02,      /* I =126 */
(PID.TID 0000.0001)                 1.358367907661329E+02,      /* I =127 */
(PID.TID 0000.0001)                 1.356047800523947E+02,      /* I =128 */
(PID.TID 0000.0001)                -1.343952199476053E+02,      /* I =129 */
(PID.TID 0000.0001)                -1.341632092338671E+02,      /* I =130 */
(PID.TID 0000.0001)                -1.340279617818807E+02,      /* I =131 */
(PID.TID 0000.0001)                -1.339345343098211E+02,      /* I =132 */
(PID.TID 0000.0001)                -1.338655466852958E+02,      /* I =133 */
(PID.TID 0000.0001)                -1.338128780579019E+02,      /* I =134 */
(PID.TID 0000.0001)                -1.337719205490397E+02,      /* I =135 */
(PID.TID 0000.0001)                -1.337397488928066E+02,      /* I =136 */
(PID.TID 0000.0001)                -1.337143719673266E+02,      /* I =137 */
(PID.TID 0000.0001)                -1.336943733729099E+02,      /* I =138 */
(PID.TID 0000.0001)                -1.336787182260554E+02,      /* I =139 */
(PID.TID 0000.0001)                -1.336666404089745E+02,      /* I =140 */
(PID.TID 0000.0001)                -1.336575727574240E+02,      /* I =141 */
(PID.TID 0000.0001)                -1.336511021209287E+02,      /* I =142 */
(PID.TID 0000.0001)                -1.336469399409420E+02,      /* I =143 */
(PID.TID 0000.0001)     2 @ -1.336449032499283E+02,             /* I =144:145 */
(PID.TID 0000.0001)                -1.336469399409420E+02,      /* I =146 */
(PID.TID 0000.0001)                -1.336511021209287E+02,      /* I =147 */
(PID.TID 0000.0001)                -1.336575727574240E+02,      /* I =148 */
(PID.TID 0000.0001)                -1.336666404089745E+02,      /* I =149 */
(PID.TID 0000.0001)                -1.336787182260554E+02,      /* I =150 */
(PID.TID 0000.0001)                -1.336943733729099E+02,      /* I =151 */
(PID.TID 0000.0001)                -1.337143719673266E+02,      /* I =152 */
(PID.TID 0000.0001)                -1.337397488928066E+02,      /* I =153 */
(PID.TID 0000.0001)                -1.337719205490397E+02,      /* I =154 */
(PID.TID 0000.0001)                -1.338128780579019E+02,      /* I =155 */
(PID.TID 0000.0001)                -1.338655466852958E+02,      /* I =156 */
(PID.TID 0000.0001)                -1.339345343098211E+02,      /* I =157 */
(PID.TID 0000.0001)                -1.340279617818807E+02,      /* I =158 */
(PID.TID 0000.0001)                -1.341632092338671E+02,      /* I =159 */
(PID.TID 0000.0001)                -1.343952199476053E+02,      /* I =160 */
(PID.TID 0000.0001)                -1.350000000000000E+02,      /* I =161 */
(PID.TID 0000.0001)                -1.362080546879630E+02,      /* I =162 */
(PID.TID 0000.0001)                -1.378136964251304E+02,      /* I =163 */
(PID.TID 0000.0001)                -1.397176767114393E+02,      /* I =164 */
(PID.TID 0000.0001)                -1.418773831978723E+02,      /* I =165 */
(PID.TID 0000.0001)                -1.442700437147871E+02,      /* I =166 */
(PID.TID 0000.0001)                -1.468812832533406E+02,      /* I =167 */
(PID.TID 0000.0001)                -1.497001816778676E+02,      /* I =168 */
(PID.TID 0000.0001)                -1.527165499179235E+02,      /* I =169 */
(PID.TID 0000.0001)                -1.559191460485302E+02,      /* I =170 */
(PID.TID 0000.0001)                -1.592943927048415E+02,      /* I =171 */
(PID.TID 0000.0001)                -1.628254580761615E+02,      /* I =172 */
(PID.TID 0000.0001)                -1.664916883061893E+02,      /* I =173 */
(PID.TID 0000.0001)                -1.702684280378718E+02,      /* I =174 */
(PID.TID 0000.0001)                -1.741272674312418E+02,      /* I =175 */
(PID.TID 0000.0001)                -1.780367200854751E+02,      /* I =176 */
(PID.TID 0000.0001)                 1.780367200854751E+02,      /* I =177 */
(PID.TID 0000.0001)                 1.741272674312418E+02,      /* I =178 */
(PID.TID 0000.0001)                 1.702684280378718E+02,      /* I =179 */
(PID.TID 0000.0001)                 1.664916883061893E+02,      /* I =180 */
(PID.TID 0000.0001)                 1.628254580761615E+02,      /* I =181 */
(PID.TID 0000.0001)                 1.592943927048415E+02,      /* I =182 */
(PID.TID 0000.0001)                 1.559191460485302E+02,      /* I =183 */
(PID.TID 0000.0001)                 1.527165499179235E+02,      /* I =184 */
(PID.TID 0000.0001)                 1.497001816778676E+02,      /* I =185 */
(PID.TID 0000.0001)                 1.468812832533406E+02,      /* I =186 */
(PID.TID 0000.0001)                 1.442700437147871E+02,      /* I =187 */
(PID.TID 0000.0001)                 1.418773831978723E+02,      /* I =188 */
(PID.TID 0000.0001)                 1.397176767114393E+02,      /* I =189 */
(PID.TID 0000.0001)                 1.378136964251304E+02,      /* I =190 */
(PID.TID 0000.0001)                 1.362080546879630E+02,      /* I =191 */
(PID.TID 0000.0001)                 1.350000000000000E+02       /* I =192 */
(PID.TID 0000.0001)     ;
(PID.TID 0000.0001) ycoord =   /* P-point Y coord ( m - cartesian, degrees - spherical ) */
(PID.TID 0000.0001)                -3.497677942598243E+01,      /* J =  1 */
(PID.TID 0000.0001)                -3.374005967394886E+01,      /* J =  2 */
(PID.TID 0000.0001)                -3.220655175667454E+01,      /* J =  3 */
(PID.TID 0000.0001)                -3.045756348838641E+01,      /* J =  4 */
(PID.TID 0000.0001)                -2.853728129852918E+01,      /* J =  5 */
(PID.TID 0000.0001)                -2.647426640173173E+01,      /* J =  6 */
(PID.TID 0000.0001)                -2.428936657094636E+01,      /* J =  7 */
(PID.TID 0000.0001)                -2.199915808312262E+01,      /* J =  8 */
(PID.TID 0000.0001)                -1.961768597440146E+01,      /* J =  9 */
(PID.TID 0000.0001)                -1.715743888281371E+01,      /* J = 10 */
(PID.TID 0000.0001)                -1.462993396899330E+01,      /* J = 11 */
(PID.TID 0000.0001)                -1.204608340464756E+01,      /* J = 12 */
(PID.TID 0000.0001)                -9.416429130284818E+00,      /* J = 13 */
(PID.TID 0000.0001)                -6.751293662992216E+00,      /* J = 14 */
(PID.TID 0000.0001)                -4.060875511835959E+00,      /* J = 15 */
(PID.TID 0000.0001)                -1.355307764409121E+00,      /* J = 16 */
(PID.TID 0000.0001)                 1.355307764409121E+00,      /* J = 17 */
(PID.TID 0000.0001)                 4.060875511835959E+00,      /* J = 18 */
(PID.TID 0000.0001)                 6.751293662992216E+00,      /* J = 19 */
(PID.TID 0000.0001)                 9.416429130284818E+00,      /* J = 20 */
(PID.TID 0000.0001)                 1.204608340464756E+01,      /* J = 21 */
(PID.TID 0000.0001)                 1.462993396899330E+01,      /* J = 22 */
(PID.TID 0000.0001)                 1.715743888281371E+01,      /* J = 23 */
(PID.TID 0000.0001)                 1.961768597440146E+01,      /* J = 24 */
(PID.TID 0000.0001)                 2.199915808312262E+01,      /* J = 25 */
(PID.TID 0000.0001)                 2.428936657094636E+01,      /* J = 26 */
(PID.TID 0000.0001)                 2.647426640173173E+01,      /* J = 27 */
(PID.TID 0000.0001)                 2.853728129852918E+01,      /* J = 28 */
(PID.TID 0000.0001)                 3.045756348838641E+01,      /* J = 29 */
(PID.TID 0000.0001)                 3.220655175667454E+01,      /* J = 30 */
(PID.TID 0000.0001)                 3.374005967394886E+01,      /* J = 31 */
(PID.TID 0000.0001)                 3.497677942598243E+01       /* J = 32 */
(PID.TID 0000.0001)     ;
(PID.TID 0000.0001) rcoord =   /* P-point R coordinate (  units of r ) */
(PID.TID 0000.0001)                 5.000000000000000E+04       /* K =  1 */
(PID.TID 0000.0001)     ;
(PID.TID 0000.0001) rF =   /* W-Interf. R coordinate (  units of r ) */
(PID.TID 0000.0001)                 1.000000000000000E+05,      /* K =  1 */
(PID.TID 0000.0001)                 0.000000000000000E+00       /* K =  2 */
(PID.TID 0000.0001)     ;
(PID.TID 0000.0001) dxF =  /* dxF(:,1,:,1) ( m - cartesian, degrees - spherical ) */
(PID.TID 0000.0001)                 1.202082051331828E+05,      /* I =  1 */
(PID.TID 0000.0001)                 1.563594089971120E+05,      /* I =  2 */
(PID.TID 0000.0001)                 1.835530058121492E+05,      /* I =  3 */
(PID.TID 0000.0001)                 2.045883481718707E+05,      /* I =  4 */
(PID.TID 0000.0001)                 2.218350349844185E+05,      /* I =  5 */
(PID.TID 0000.0001)                 2.364352994647058E+05,      /* I =  6 */
(PID.TID 0000.0001)                 2.490022710862746E+05,      /* I =  7 */
(PID.TID 0000.0001)                 2.598919724358304E+05,      /* I =  8 */
(PID.TID 0000.0001)                 2.693210245495156E+05,      /* I =  9 */
(PID.TID 0000.0001)                 2.774243179696503E+05,      /* I = 10 */
(PID.TID 0000.0001)                 2.842862532064524E+05,      /* I = 11 */
(PID.TID 0000.0001)                 2.899590699694043E+05,      /* I = 12 */
(PID.TID 0000.0001)                 2.944742915095688E+05,      /* I = 13 */
(PID.TID 0000.0001)                 2.978501920522794E+05,      /* I = 14 */
(PID.TID 0000.0001)                 3.000967749619962E+05,      /* I = 15 */
(PID.TID 0000.0001)     2 @  3.012190981969055E+05,             /* I = 16: 17 */
(PID.TID 0000.0001)                 3.000967749619962E+05,      /* I = 18 */
(PID.TID 0000.0001)                 2.978501920522794E+05,      /* I = 19 */
(PID.TID 0000.0001)                 2.944742915095688E+05,      /* I = 20 */
(PID.TID 0000.0001)                 2.899590699694043E+05,      /* I = 21 */
(PID.TID 0000.0001)                 2.842862532064524E+05,      /* I = 22 */
(PID.TID 0000.0001)                 2.774243179696503E+05,      /* I = 23 */
(PID.TID 0000.0001)                 2.693210245495156E+05,      /* I = 24 */
(PID.TID 0000.0001)                 2.598919724358304E+05,      /* I = 25 */
(PID.TID 0000.0001)                 2.490022710862746E+05,      /* I = 26 */
(PID.TID 0000.0001)                 2.364352994647058E+05,      /* I = 27 */
(PID.TID 0000.0001)                 2.218350349844185E+05,      /* I = 28 */
(PID.TID 0000.0001)                 2.045883481718707E+05,      /* I = 29 */
(PID.TID 0000.0001)                 1.835530058121492E+05,      /* I = 30 */
(PID.TID 0000.0001)                 1.563594089971120E+05,      /* I = 31 */
(PID.TID 0000.0001)     2 @  1.202082051331828E+05,             /* I = 32: 33 */
(PID.TID 0000.0001)                 1.563594089971120E+05,      /* I = 34 */
(PID.TID 0000.0001)                 1.835530058121492E+05,      /* I = 35 */
(PID.TID 0000.0001)                 2.045883481718707E+05,      /* I = 36 */
(PID.TID 0000.0001)                 2.218350349844185E+05,      /* I = 37 */
(PID.TID 0000.0001)                 2.364352994647058E+05,      /* I = 38 */
(PID.TID 0000.0001)                 2.490022710862746E+05,      /* I = 39 */
(PID.TID 0000.0001)                 2.598919724358304E+05,      /* I = 40 */
(PID.TID 0000.0001)                 2.693210245495156E+05,      /* I = 41 */
(PID.TID 0000.0001)                 2.774243179696503E+05,      /* I = 42 */
(PID.TID 0000.0001)                 2.842862532064524E+05,      /* I = 43 */
(PID.TID 0000.0001)                 2.899590699694043E+05,      /* I = 44 */
(PID.TID 0000.0001)                 2.944742915095688E+05,      /* I = 45 */
(PID.TID 0000.0001)                 2.978501920522794E+05,      /* I = 46 */
(PID.TID 0000.0001)                 3.000967749619962E+05,      /* I = 47 */
(PID.TID 0000.0001)     2 @  3.012190981969055E+05,             /* I = 48: 49 */
(PID.TID 0000.0001)                 3.000967749619962E+05,      /* I = 50 */
(PID.TID 0000.0001)                 2.978501920522794E+05,      /* I = 51 */
(PID.TID 0000.0001)                 2.944742915095688E+05,      /* I = 52 */
(PID.TID 0000.0001)                 2.899590699694043E+05,      /* I = 53 */
(PID.TID 0000.0001)                 2.842862532064524E+05,      /* I = 54 */
(PID.TID 0000.0001)                 2.774243179696503E+05,      /* I = 55 */
(PID.TID 0000.0001)                 2.693210245495156E+05,      /* I = 56 */
(PID.TID 0000.0001)                 2.598919724358304E+05,      /* I = 57 */
(PID.TID 0000.0001)                 2.490022710862746E+05,      /* I = 58 */
(PID.TID 0000.0001)                 2.364352994647058E+05,      /* I = 59 */
(PID.TID 0000.0001)                 2.218350349844185E+05,      /* I = 60 */
(PID.TID 0000.0001)                 2.045883481718707E+05,      /* I = 61 */
(PID.TID 0000.0001)                 1.835530058121492E+05,      /* I = 62 */
(PID.TID 0000.0001)                 1.563594089971120E+05,      /* I = 63 */
(PID.TID 0000.0001)     2 @  1.202082051331828E+05,             /* I = 64: 65 */
(PID.TID 0000.0001)                 1.563594089971120E+05,      /* I = 66 */
(PID.TID 0000.0001)                 1.835530058121492E+05,      /* I = 67 */
(PID.TID 0000.0001)                 2.045883481718707E+05,      /* I = 68 */
(PID.TID 0000.0001)                 2.218350349844185E+05,      /* I = 69 */
(PID.TID 0000.0001)                 2.364352994647058E+05,      /* I = 70 */
(PID.TID 0000.0001)                 2.490022710862746E+05,      /* I = 71 */
(PID.TID 0000.0001)                 2.598919724358304E+05,      /* I = 72 */
(PID.TID 0000.0001)                 2.693210245495156E+05,      /* I = 73 */
(PID.TID 0000.0001)                 2.774243179696503E+05,      /* I = 74 */
(PID.TID 0000.0001)                 2.842862532064524E+05,      /* I = 75 */
(PID.TID 0000.0001)                 2.899590699694043E+05,      /* I = 76 */
(PID.TID 0000.0001)                 2.944742915095688E+05,      /* I = 77 */
(PID.TID 0000.0001)                 2.978501920522794E+05,      /* I = 78 */
(PID.TID 0000.0001)                 3.000967749619962E+05,      /* I = 79 */
(PID.TID 0000.0001)     2 @  3.012190981969055E+05,             /* I = 80: 81 */
(PID.TID 0000.0001)                 3.000967749619962E+05,      /* I = 82 */
(PID.TID 0000.0001)                 2.978501920522794E+05,      /* I = 83 */
(PID.TID 0000.0001)                 2.944742915095688E+05,      /* I = 84 */
(PID.TID 0000.0001)                 2.899590699694043E+05,      /* I = 85 */
(PID.TID 0000.0001)                 2.842862532064524E+05,      /* I = 86 */
(PID.TID 0000.0001)                 2.774243179696503E+05,      /* I = 87 */
(PID.TID 0000.0001)                 2.693210245495156E+05,      /* I = 88 */
(PID.TID 0000.0001)                 2.598919724358304E+05,      /* I = 89 */
(PID.TID 0000.0001)                 2.490022710862746E+05,      /* I = 90 */
(PID.TID 0000.0001)                 2.364352994647058E+05,      /* I = 91 */
(PID.TID 0000.0001)                 2.218350349844185E+05,      /* I = 92 */
(PID.TID 0000.0001)                 2.045883481718707E+05,      /* I = 93 */
(PID.TID 0000.0001)                 1.835530058121492E+05,      /* I = 94 */
(PID.TID 0000.0001)                 1.563594089971120E+05,      /* I = 95 */
(PID.TID 0000.0001)     2 @  1.202082051331828E+05,             /* I = 96: 97 */
(PID.TID 0000.0001)                 1.563594089971120E+05,      /* I = 98 */
(PID.TID 0000.0001)                 1.835530058121492E+05,      /* I = 99 */
(PID.TID 0000.0001)                 2.045883481718707E+05,      /* I =100 */
(PID.TID 0000.0001)                 2.218350349844185E+05,      /* I =101 */
(PID.TID 0000.0001)                 2.364352994647058E+05,      /* I =102 */
(PID.TID 0000.0001)                 2.490022710862746E+05,      /* I =103 */
(PID.TID 0000.0001)                 2.598919724358304E+05,      /* I =104 */
(PID.TID 0000.0001)                 2.693210245495156E+05,      /* I =105 */
(PID.TID 0000.0001)                 2.774243179696503E+05,      /* I =106 */
(PID.TID 0000.0001)                 2.842862532064524E+05,      /* I =107 */
(PID.TID 0000.0001)                 2.899590699694043E+05,      /* I =108 */
(PID.TID 0000.0001)                 2.944742915095688E+05,      /* I =109 */
(PID.TID 0000.0001)                 2.978501920522794E+05,      /* I =110 */
(PID.TID 0000.0001)                 3.000967749619962E+05,      /* I =111 */
(PID.TID 0000.0001)     2 @  3.012190981969055E+05,             /* I =112:113 */
(PID.TID 0000.0001)                 3.000967749619962E+05,      /* I =114 */
(PID.TID 0000.0001)                 2.978501920522794E+05,      /* I =115 */
(PID.TID 0000.0001)                 2.944742915095688E+05,      /* I =116 */
(PID.TID 0000.0001)                 2.899590699694043E+05,      /* I =117 */
(PID.TID 0000.0001)                 2.842862532064524E+05,      /* I =118 */
(PID.TID 0000.0001)                 2.774243179696503E+05,      /* I =119 */
(PID.TID 0000.0001)                 2.693210245495156E+05,      /* I =120 */
(PID.TID 0000.0001)                 2.598919724358304E+05,      /* I =121 */
(PID.TID 0000.0001)                 2.490022710862746E+05,      /* I =122 */
(PID.TID 0000.0001)                 2.364352994647058E+05,      /* I =123 */
(PID.TID 0000.0001)                 2.218350349844185E+05,      /* I =124 */
(PID.TID 0000.0001)                 2.045883481718707E+05,      /* I =125 */
(PID.TID 0000.0001)                 1.835530058121492E+05,      /* I =126 */
(PID.TID 0000.0001)                 1.563594089971120E+05,      /* I =127 */
(PID.TID 0000.0001)     2 @  1.202082051331828E+05,             /* I =128:129 */
(PID.TID 0000.0001)                 1.563594089971120E+05,      /* I =130 */
(PID.TID 0000.0001)                 1.835530058121492E+05,      /* I =131 */
(PID.TID 0000.0001)                 2.045883481718707E+05,      /* I =132 */
(PID.TID 0000.0001)                 2.218350349844185E+05,      /* I =133 */
(PID.TID 0000.0001)                 2.364352994647058E+05,      /* I =134 */
(PID.TID 0000.0001)                 2.490022710862746E+05,      /* I =135 */
(PID.TID 0000.0001)                 2.598919724358304E+05,      /* I =136 */
(PID.TID 0000.0001)                 2.693210245495156E+05,      /* I =137 */
(PID.TID 0000.0001)                 2.774243179696503E+05,      /* I =138 */
(PID.TID 0000.0001)                 2.842862532064524E+05,      /* I =139 */
(PID.TID 0000.0001)                 2.899590699694043E+05,      /* I =140 */
(PID.TID 0000.0001)                 2.944742915095688E+05,      /* I =141 */
(PID.TID 0000.0001)                 2.978501920522794E+05,      /* I =142 */
(PID.TID 0000.0001)                 3.000967749619962E+05,      /* I =143 */
(PID.TID 0000.0001)     2 @  3.012190981969055E+05,             /* I =144:145 */
(PID.TID 0000.0001)                 3.000967749619962E+05,      /* I =146 */
(PID.TID 0000.0001)                 2.978501920522794E+05,      /* I =147 */
(PID.TID 0000.0001)                 2.944742915095688E+05,      /* I =148 */
(PID.TID 0000.0001)                 2.899590699694043E+05,      /* I =149 */
(PID.TID 0000.0001)                 2.842862532064524E+05,      /* I =150 */
(PID.TID 0000.0001)                 2.774243179696503E+05,      /* I =151 */
(PID.TID 0000.0001)                 2.693210245495156E+05,      /* I =152 */
(PID.TID 0000.0001)                 2.598919724358304E+05,      /* I =153 */
(PID.TID 0000.0001)                 2.490022710862746E+05,      /* I =154 */
(PID.TID 0000.0001)                 2.364352994647058E+05,      /* I =155 */
(PID.TID 0000.0001)                 2.218350349844185E+05,      /* I =156 */
(PID.TID 0000.0001)                 2.045883481718707E+05,      /* I =157 */
(PID.TID 0000.0001)                 1.835530058121492E+05,      /* I =158 */
(PID.TID 0000.0001)                 1.563594089971120E+05,      /* I =159 */
(PID.TID 0000.0001)     2 @  1.202082051331828E+05,             /* I =160:161 */
(PID.TID 0000.0001)                 1.563594089971120E+05,      /* I =162 */
(PID.TID 0000.0001)                 1.835530058121492E+05,      /* I =163 */
(PID.TID 0000.0001)                 2.045883481718707E+05,      /* I =164 */
(PID.TID 0000.0001)                 2.218350349844185E+05,      /* I =165 */
(PID.TID 0000.0001)                 2.364352994647058E+05,      /* I =166 */
(PID.TID 0000.0001)                 2.490022710862746E+05,      /* I =167 */
(PID.TID 0000.0001)                 2.598919724358304E+05,      /* I =168 */
(PID.TID 0000.0001)                 2.693210245495156E+05,      /* I =169 */
(PID.TID 0000.0001)                 2.774243179696503E+05,      /* I =170 */
(PID.TID 0000.0001)                 2.842862532064524E+05,      /* I =171 */
(PID.TID 0000.0001)                 2.899590699694043E+05,      /* I =172 */
(PID.TID 0000.0001)                 2.944742915095688E+05,      /* I =173 */
(PID.TID 0000.0001)                 2.978501920522794E+05,      /* I =174 */
(PID.TID 0000.0001)                 3.000967749619962E+05,      /* I =175 */
(PID.TID 0000.0001)     2 @  3.012190981969055E+05,             /* I =176:177 */
(PID.TID 0000.0001)                 3.000967749619962E+05,      /* I =178 */
(PID.TID 0000.0001)                 2.978501920522794E+05,      /* I =179 */
(PID.TID 0000.0001)                 2.944742915095688E+05,      /* I =180 */
(PID.TID 0000.0001)                 2.899590699694043E+05,      /* I =181 */
(PID.TID 0000.0001)                 2.842862532064524E+05,      /* I =182 */
(PID.TID 0000.0001)                 2.774243179696503E+05,      /* I =183 */
(PID.TID 0000.0001)                 2.693210245495156E+05,      /* I =184 */
(PID.TID 0000.0001)                 2.598919724358304E+05,      /* I =185 */
(PID.TID 0000.0001)                 2.490022710862746E+05,      /* I =186 */
(PID.TID 0000.0001)                 2.364352994647058E+05,      /* I =187 */
(PID.TID 0000.0001)                 2.218350349844185E+05,      /* I =188 */
(PID.TID 0000.0001)                 2.045883481718707E+05,      /* I =189 */
(PID.TID 0000.0001)                 1.835530058121492E+05,      /* I =190 */
(PID.TID 0000.0001)                 1.563594089971120E+05,      /* I =191 */
(PID.TID 0000.0001)                 1.202082051331828E+05       /* I =192 */
(PID.TID 0000.0001)     ;
(PID.TID 0000.0001) dxF =  /* dxF(1,:,1,:) ( m - cartesian, degrees - spherical ) */
(PID.TID 0000.0001)                 1.202082051331828E+05,      /* J =  1 */
(PID.TID 0000.0001)                 1.572908084538706E+05,      /* J =  2 */
(PID.TID 0000.0001)                 1.840412227747703E+05,      /* J =  3 */
(PID.TID 0000.0001)                 2.048868197919576E+05,      /* J =  4 */
(PID.TID 0000.0001)                 2.220405216043041E+05,      /* J =  5 */
(PID.TID 0000.0001)                 2.365892017348392E+05,      /* J =  6 */
(PID.TID 0000.0001)                 2.491250781852558E+05,      /* J =  7 */
(PID.TID 0000.0001)                 2.599949918261881E+05,      /* J =  8 */
(PID.TID 0000.0001)                 2.694110134598581E+05,      /* J =  9 */
(PID.TID 0000.0001)                 2.775055554645015E+05,      /* J = 10 */
(PID.TID 0000.0001)                 2.843615645344775E+05,      /* J = 11 */
(PID.TID 0000.0001)                 2.900303768613599E+05,      /* J = 12 */
(PID.TID 0000.0001)                 2.945429307892709E+05,      /* J = 13 */
(PID.TID 0000.0001)                 2.979171143158405E+05,      /* J = 14 */
(PID.TID 0000.0001)                 3.001626787528886E+05,      /* J = 15 */
(PID.TID 0000.0001)     2 @  3.012844832048790E+05,             /* J = 16: 17 */
(PID.TID 0000.0001)                 3.001626787528886E+05,      /* J = 18 */
(PID.TID 0000.0001)                 2.979171143158405E+05,      /* J = 19 */
(PID.TID 0000.0001)                 2.945429307892709E+05,      /* J = 20 */
(PID.TID 0000.0001)                 2.900303768613599E+05,      /* J = 21 */
(PID.TID 0000.0001)                 2.843615645344775E+05,      /* J = 22 */
(PID.TID 0000.0001)                 2.775055554645015E+05,      /* J = 23 */
(PID.TID 0000.0001)                 2.694110134598581E+05,      /* J = 24 */
(PID.TID 0000.0001)                 2.599949918261881E+05,      /* J = 25 */
(PID.TID 0000.0001)                 2.491250781852558E+05,      /* J = 26 */
(PID.TID 0000.0001)                 2.365892017348392E+05,      /* J = 27 */
(PID.TID 0000.0001)                 2.220405216043041E+05,      /* J = 28 */
(PID.TID 0000.0001)                 2.048868197919576E+05,      /* J = 29 */
(PID.TID 0000.0001)                 1.840412227747703E+05,      /* J = 30 */
(PID.TID 0000.0001)                 1.572908084538706E+05,      /* J = 31 */
(PID.TID 0000.0001)                 1.202082051331828E+05       /* J = 32 */
(PID.TID 0000.0001)     ;
(PID.TID 0000.0001) dyF =  /* dyF(:,1,:,1) ( m - cartesian, degrees - spherical ) */
(PID.TID 0000.0001)                 1.202082051331828E+05,      /* I =  1 */
(PID.TID 0000.0001)                 1.572908084538706E+05,      /* I =  2 */
(PID.TID 0000.0001)                 1.840412227747703E+05,      /* I =  3 */
(PID.TID 0000.0001)                 2.048868197919576E+05,      /* I =  4 */
(PID.TID 0000.0001)                 2.220405216043041E+05,      /* I =  5 */
(PID.TID 0000.0001)                 2.365892017348392E+05,      /* I =  6 */
(PID.TID 0000.0001)                 2.491250781852558E+05,      /* I =  7 */
(PID.TID 0000.0001)                 2.599949918261881E+05,      /* I =  8 */
(PID.TID 0000.0001)                 2.694110134598581E+05,      /* I =  9 */
(PID.TID 0000.0001)                 2.775055554645015E+05,      /* I = 10 */
(PID.TID 0000.0001)                 2.843615645344775E+05,      /* I = 11 */
(PID.TID 0000.0001)                 2.900303768613599E+05,      /* I = 12 */
(PID.TID 0000.0001)                 2.945429307892709E+05,      /* I = 13 */
(PID.TID 0000.0001)                 2.979171143158405E+05,      /* I = 14 */
(PID.TID 0000.0001)                 3.001626787528886E+05,      /* I = 15 */
(PID.TID 0000.0001)     2 @  3.012844832048790E+05,             /* I = 16: 17 */
(PID.TID 0000.0001)                 3.001626787528886E+05,      /* I = 18 */
(PID.TID 0000.0001)                 2.979171143158405E+05,      /* I = 19 */
(PID.TID 0000.0001)                 2.945429307892709E+05,      /* I = 20 */
(PID.TID 0000.0001)                 2.900303768613599E+05,      /* I = 21 */
(PID.TID 0000.0001)                 2.843615645344775E+05,      /* I = 22 */
(PID.TID 0000.0001)                 2.775055554645015E+05,      /* I = 23 */
(PID.TID 0000.0001)                 2.694110134598581E+05,      /* I = 24 */
(PID.TID 0000.0001)                 2.599949918261881E+05,      /* I = 25 */
(PID.TID 0000.0001)                 2.491250781852558E+05,      /* I = 26 */
(PID.TID 0000.0001)                 2.365892017348392E+05,      /* I = 27 */
(PID.TID 0000.0001)                 2.220405216043041E+05,      /* I = 28 */
(PID.TID 0000.0001)                 2.048868197919576E+05,      /* I = 29 */
(PID.TID 0000.0001)                 1.840412227747703E+05,      /* I = 30 */
(PID.TID 0000.0001)                 1.572908084538706E+05,      /* I = 31 */
(PID.TID 0000.0001)     2 @  1.202082051331828E+05,             /* I = 32: 33 */
(PID.TID 0000.0001)                 1.572908084538706E+05,      /* I = 34 */
(PID.TID 0000.0001)                 1.840412227747703E+05,      /* I = 35 */
(PID.TID 0000.0001)                 2.048868197919576E+05,      /* I = 36 */
(PID.TID 0000.0001)                 2.220405216043041E+05,      /* I = 37 */
(PID.TID 0000.0001)                 2.365892017348392E+05,      /* I = 38 */
(PID.TID 0000.0001)                 2.491250781852558E+05,      /* I = 39 */
(PID.TID 0000.0001)                 2.599949918261881E+05,      /* I = 40 */
(PID.TID 0000.0001)                 2.694110134598581E+05,      /* I = 41 */
(PID.TID 0000.0001)                 2.775055554645015E+05,      /* I = 42 */
(PID.TID 0000.0001)                 2.843615645344775E+05,      /* I = 43 */
(PID.TID 0000.0001)                 2.900303768613599E+05,      /* I = 44 */
(PID.TID 0000.0001)                 2.945429307892709E+05,      /* I = 45 */
(PID.TID 0000.0001)                 2.979171143158405E+05,      /* I = 46 */
(PID.TID 0000.0001)                 3.001626787528886E+05,      /* I = 47 */
(PID.TID 0000.0001)     2 @  3.012844832048790E+05,             /* I = 48: 49 */
(PID.TID 0000.0001)                 3.001626787528886E+05,      /* I = 50 */
(PID.TID 0000.0001)                 2.979171143158405E+05,      /* I = 51 */
(PID.TID 0000.0001)                 2.945429307892709E+05,      /* I = 52 */
(PID.TID 0000.0001)                 2.900303768613599E+05,      /* I = 53 */
(PID.TID 0000.0001)                 2.843615645344775E+05,      /* I = 54 */
(PID.TID 0000.0001)                 2.775055554645015E+05,      /* I = 55 */
(PID.TID 0000.0001)                 2.694110134598581E+05,      /* I = 56 */
(PID.TID 0000.0001)                 2.599949918261881E+05,      /* I = 57 */
(PID.TID 0000.0001)                 2.491250781852558E+05,      /* I = 58 */
(PID.TID 0000.0001)                 2.365892017348392E+05,      /* I = 59 */
(PID.TID 0000.0001)                 2.220405216043041E+05,      /* I = 60 */
(PID.TID 0000.0001)                 2.048868197919576E+05,      /* I = 61 */
(PID.TID 0000.0001)                 1.840412227747703E+05,      /* I = 62 */
(PID.TID 0000.0001)                 1.572908084538706E+05,      /* I = 63 */
(PID.TID 0000.0001)     2 @  1.202082051331828E+05,             /* I = 64: 65 */
(PID.TID 0000.0001)                 1.572908084538706E+05,      /* I = 66 */
(PID.TID 0000.0001)                 1.840412227747703E+05,      /* I = 67 */
(PID.TID 0000.0001)                 2.048868197919576E+05,      /* I = 68 */
(PID.TID 0000.0001)                 2.220405216043041E+05,      /* I = 69 */
(PID.TID 0000.0001)                 2.365892017348392E+05,      /* I = 70 */
(PID.TID 0000.0001)                 2.491250781852558E+05,      /* I = 71 */
(PID.TID 0000.0001)                 2.599949918261881E+05,      /* I = 72 */
(PID.TID 0000.0001)                 2.694110134598581E+05,      /* I = 73 */
(PID.TID 0000.0001)                 2.775055554645015E+05,      /* I = 74 */
(PID.TID 0000.0001)                 2.843615645344775E+05,      /* I = 75 */
(PID.TID 0000.0001)                 2.900303768613599E+05,      /* I = 76 */
(PID.TID 0000.0001)                 2.945429307892709E+05,      /* I = 77 */
(PID.TID 0000.0001)                 2.979171143158405E+05,      /* I = 78 */
(PID.TID 0000.0001)                 3.001626787528886E+05,      /* I = 79 */
(PID.TID 0000.0001)     2 @  3.012844832048790E+05,             /* I = 80: 81 */
(PID.TID 0000.0001)                 3.001626787528886E+05,      /* I = 82 */
(PID.TID 0000.0001)                 2.979171143158405E+05,      /* I = 83 */
(PID.TID 0000.0001)                 2.945429307892709E+05,      /* I = 84 */
(PID.TID 0000.0001)                 2.900303768613599E+05,      /* I = 85 */
(PID.TID 0000.0001)                 2.843615645344775E+05,      /* I = 86 */
(PID.TID 0000.0001)                 2.775055554645015E+05,      /* I = 87 */
(PID.TID 0000.0001)                 2.694110134598581E+05,      /* I = 88 */
(PID.TID 0000.0001)                 2.599949918261881E+05,      /* I = 89 */
(PID.TID 0000.0001)                 2.491250781852558E+05,      /* I = 90 */
(PID.TID 0000.0001)                 2.365892017348392E+05,      /* I = 91 */
(PID.TID 0000.0001)                 2.220405216043041E+05,      /* I = 92 */
(PID.TID 0000.0001)                 2.048868197919576E+05,      /* I = 93 */
(PID.TID 0000.0001)                 1.840412227747703E+05,      /* I = 94 */
(PID.TID 0000.0001)                 1.572908084538706E+05,      /* I = 95 */
(PID.TID 0000.0001)     2 @  1.202082051331828E+05,             /* I = 96: 97 */
(PID.TID 0000.0001)                 1.572908084538706E+05,      /* I = 98 */
(PID.TID 0000.0001)                 1.840412227747703E+05,      /* I = 99 */
(PID.TID 0000.0001)                 2.048868197919576E+05,      /* I =100 */
(PID.TID 0000.0001)                 2.220405216043041E+05,      /* I =101 */
(PID.TID 0000.0001)                 2.365892017348392E+05,      /* I =102 */
(PID.TID 0000.0001)                 2.491250781852558E+05,      /* I =103 */
(PID.TID 0000.0001)                 2.599949918261881E+05,      /* I =104 */
(PID.TID 0000.0001)                 2.694110134598581E+05,      /* I =105 */
(PID.TID 0000.0001)                 2.775055554645015E+05,      /* I =106 */
(PID.TID 0000.0001)                 2.843615645344775E+05,      /* I =107 */
(PID.TID 0000.0001)                 2.900303768613599E+05,      /* I =108 */
(PID.TID 0000.0001)                 2.945429307892709E+05,      /* I =109 */
(PID.TID 0000.0001)                 2.979171143158405E+05,      /* I =110 */
(PID.TID 0000.0001)                 3.001626787528886E+05,      /* I =111 */
(PID.TID 0000.0001)     2 @  3.012844832048790E+05,             /* I =112:113 */
(PID.TID 0000.0001)                 3.001626787528886E+05,      /* I =114 */
(PID.TID 0000.0001)                 2.979171143158405E+05,      /* I =115 */
(PID.TID 0000.0001)                 2.945429307892709E+05,      /* I =116 */
(PID.TID 0000.0001)                 2.900303768613599E+05,      /* I =117 */
(PID.TID 0000.0001)                 2.843615645344775E+05,      /* I =118 */
(PID.TID 0000.0001)                 2.775055554645015E+05,      /* I =119 */
(PID.TID 0000.0001)                 2.694110134598581E+05,      /* I =120 */
(PID.TID 0000.0001)                 2.599949918261881E+05,      /* I =121 */
(PID.TID 0000.0001)                 2.491250781852558E+05,      /* I =122 */
(PID.TID 0000.0001)                 2.365892017348392E+05,      /* I =123 */
(PID.TID 0000.0001)                 2.220405216043041E+05,      /* I =124 */
(PID.TID 0000.0001)                 2.048868197919576E+05,      /* I =125 */
(PID.TID 0000.0001)                 1.840412227747703E+05,      /* I =126 */
(PID.TID 0000.0001)                 1.572908084538706E+05,      /* I =127 */
(PID.TID 0000.0001)     2 @  1.202082051331828E+05,             /* I =128:129 */
(PID.TID 0000.0001)                 1.572908084538706E+05,      /* I =130 */
(PID.TID 0000.0001)                 1.840412227747703E+05,      /* I =131 */
(PID.TID 0000.0001)                 2.048868197919576E+05,      /* I =132 */
(PID.TID 0000.0001)                 2.220405216043041E+05,      /* I =133 */
(PID.TID 0000.0001)                 2.365892017348392E+05,      /* I =134 */
(PID.TID 0000.0001)                 2.491250781852558E+05,      /* I =135 */
(PID.TID 0000.0001)                 2.599949918261881E+05,      /* I =136 */
(PID.TID 0000.0001)                 2.694110134598581E+05,      /* I =137 */
(PID.TID 0000.0001)                 2.775055554645015E+05,      /* I =138 */
(PID.TID 0000.0001)                 2.843615645344775E+05,      /* I =139 */
(PID.TID 0000.0001)                 2.900303768613599E+05,      /* I =140 */
(PID.TID 0000.0001)                 2.945429307892709E+05,      /* I =141 */
(PID.TID 0000.0001)                 2.979171143158405E+05,      /* I =142 */
(PID.TID 0000.0001)                 3.001626787528886E+05,      /* I =143 */
(PID.TID 0000.0001)     2 @  3.012844832048790E+05,             /* I =144:145 */
(PID.TID 0000.0001)                 3.001626787528886E+05,      /* I =146 */
(PID.TID 0000.0001)                 2.979171143158405E+05,      /* I =147 */
(PID.TID 0000.0001)                 2.945429307892709E+05,      /* I =148 */
(PID.TID 0000.0001)                 2.900303768613599E+05,      /* I =149 */
(PID.TID 0000.0001)                 2.843615645344775E+05,      /* I =150 */
(PID.TID 0000.0001)                 2.775055554645015E+05,      /* I =151 */
(PID.TID 0000.0001)                 2.694110134598581E+05,      /* I =152 */
(PID.TID 0000.0001)                 2.599949918261881E+05,      /* I =153 */
(PID.TID 0000.0001)                 2.491250781852558E+05,      /* I =154 */
(PID.TID 0000.0001)                 2.365892017348392E+05,      /* I =155 */
(PID.TID 0000.0001)                 2.220405216043041E+05,      /* I =156 */
(PID.TID 0000.0001)                 2.048868197919576E+05,      /* I =157 */
(PID.TID 0000.0001)                 1.840412227747703E+05,      /* I =158 */
(PID.TID 0000.0001)                 1.572908084538706E+05,      /* I =159 */
(PID.TID 0000.0001)     2 @  1.202082051331828E+05,             /* I =160:161 */
(PID.TID 0000.0001)                 1.572908084538706E+05,      /* I =162 */
(PID.TID 0000.0001)                 1.840412227747703E+05,      /* I =163 */
(PID.TID 0000.0001)                 2.048868197919576E+05,      /* I =164 */
(PID.TID 0000.0001)                 2.220405216043041E+05,      /* I =165 */
(PID.TID 0000.0001)                 2.365892017348392E+05,      /* I =166 */
(PID.TID 0000.0001)                 2.491250781852558E+05,      /* I =167 */
(PID.TID 0000.0001)                 2.599949918261881E+05,      /* I =168 */
(PID.TID 0000.0001)                 2.694110134598581E+05,      /* I =169 */
(PID.TID 0000.0001)                 2.775055554645015E+05,      /* I =170 */
(PID.TID 0000.0001)                 2.843615645344775E+05,      /* I =171 */
(PID.TID 0000.0001)                 2.900303768613599E+05,      /* I =172 */
(PID.TID 0000.0001)                 2.945429307892709E+05,      /* I =173 */
(PID.TID 0000.0001)                 2.979171143158405E+05,      /* I =174 */
(PID.TID 0000.0001)                 3.001626787528886E+05,      /* I =175 */
(PID.TID 0000.0001)     2 @  3.012844832048790E+05,             /* I =176:177 */
(PID.TID 0000.0001)                 3.001626787528886E+05,      /* I =178 */
(PID.TID 0000.0001)                 2.979171143158405E+05,      /* I =179 */
(PID.TID 0000.0001)                 2.945429307892709E+05,      /* I =180 */
(PID.TID 0000.0001)                 2.900303768613599E+05,      /* I =181 */
(PID.TID 0000.0001)                 2.843615645344775E+05,      /* I =182 */
(PID.TID 0000.0001)                 2.775055554645015E+05,      /* I =183 */
(PID.TID 0000.0001)                 2.694110134598581E+05,      /* I =184 */
(PID.TID 0000.0001)                 2.599949918261881E+05,      /* I =185 */
(PID.TID 0000.0001)                 2.491250781852558E+05,      /* I =186 */
(PID.TID 0000.0001)                 2.365892017348392E+05,      /* I =187 */
(PID.TID 0000.0001)                 2.220405216043041E+05,      /* I =188 */
(PID.TID 0000.0001)                 2.048868197919576E+05,      /* I =189 */
(PID.TID 0000.0001)                 1.840412227747703E+05,      /* I =190 */
(PID.TID 0000.0001)                 1.572908084538706E+05,      /* I =191 */
(PID.TID 0000.0001)                 1.202082051331828E+05       /* I =192 */
(PID.TID 0000.0001)     ;
(PID.TID 0000.0001) dyF =  /* dyF(1,:,1,:) ( m - cartesian, degrees - spherical ) */
(PID.TID 0000.0001)                 1.202082051331828E+05,      /* J =  1 */
(PID.TID 0000.0001)                 1.563594089971120E+05,      /* J =  2 */
(PID.TID 0000.0001)                 1.835530058121492E+05,      /* J =  3 */
(PID.TID 0000.0001)                 2.045883481718707E+05,      /* J =  4 */
(PID.TID 0000.0001)                 2.218350349844185E+05,      /* J =  5 */
(PID.TID 0000.0001)                 2.364352994647058E+05,      /* J =  6 */
(PID.TID 0000.0001)                 2.490022710862746E+05,      /* J =  7 */
(PID.TID 0000.0001)                 2.598919724358304E+05,      /* J =  8 */
(PID.TID 0000.0001)                 2.693210245495156E+05,      /* J =  9 */
(PID.TID 0000.0001)                 2.774243179696503E+05,      /* J = 10 */
(PID.TID 0000.0001)                 2.842862532064524E+05,      /* J = 11 */
(PID.TID 0000.0001)                 2.899590699694043E+05,      /* J = 12 */
(PID.TID 0000.0001)                 2.944742915095688E+05,      /* J = 13 */
(PID.TID 0000.0001)                 2.978501920522794E+05,      /* J = 14 */
(PID.TID 0000.0001)                 3.000967749619962E+05,      /* J = 15 */
(PID.TID 0000.0001)     2 @  3.012190981969055E+05,             /* J = 16: 17 */
(PID.TID 0000.0001)                 3.000967749619962E+05,      /* J = 18 */
(PID.TID 0000.0001)                 2.978501920522794E+05,      /* J = 19 */
(PID.TID 0000.0001)                 2.944742915095688E+05,      /* J = 20 */
(PID.TID 0000.0001)                 2.899590699694043E+05,      /* J = 21 */
(PID.TID 0000.0001)                 2.842862532064524E+05,      /* J = 22 */
(PID.TID 0000.0001)                 2.774243179696503E+05,      /* J = 23 */
(PID.TID 0000.0001)                 2.693210245495156E+05,      /* J = 24 */
(PID.TID 0000.0001)                 2.598919724358304E+05,      /* J = 25 */
(PID.TID 0000.0001)                 2.490022710862746E+05,      /* J = 26 */
(PID.TID 0000.0001)                 2.364352994647058E+05,      /* J = 27 */
(PID.TID 0000.0001)                 2.218350349844185E+05,      /* J = 28 */
(PID.TID 0000.0001)                 2.045883481718707E+05,      /* J = 29 */
(PID.TID 0000.0001)                 1.835530058121492E+05,      /* J = 30 */
(PID.TID 0000.0001)                 1.563594089971120E+05,      /* J = 31 */
(PID.TID 0000.0001)                 1.202082051331828E+05       /* J = 32 */
(PID.TID 0000.0001)     ;
(PID.TID 0000.0001) dxG =  /* dxG(:,1,:,1) ( m - cartesian, degrees - spherical ) */
(PID.TID 0000.0001)                 1.009837800879055E+05,      /* I =  1 */
(PID.TID 0000.0001)                 1.534505834330338E+05,      /* I =  2 */
(PID.TID 0000.0001)                 1.823321598773926E+05,      /* I =  3 */
(PID.TID 0000.0001)                 2.038999045536999E+05,      /* I =  4 */
(PID.TID 0000.0001)                 2.213884732245467E+05,      /* I =  5 */
(PID.TID 0000.0001)                 2.361211699596122E+05,      /* I =  6 */
(PID.TID 0000.0001)                 2.487693460283865E+05,      /* I =  7 */
(PID.TID 0000.0001)                 2.597126963772147E+05,      /* I =  8 */
(PID.TID 0000.0001)                 2.691790288994575E+05,      /* I =  9 */
(PID.TID 0000.0001)                 2.773091043277394E+05,      /* I = 10 */
(PID.TID 0000.0001)                 2.841906470085516E+05,      /* I = 11 */
(PID.TID 0000.0001)                 2.898778860929753E+05,      /* I = 12 */
(PID.TID 0000.0001)                 2.944035815526416E+05,      /* I = 13 */
(PID.TID 0000.0001)                 2.977867909042096E+05,      /* I = 14 */
(PID.TID 0000.0001)                 3.000380090330854E+05,      /* I = 15 */
(PID.TID 0000.0001)     2 @  3.011625828699101E+05,             /* I = 16: 17 */
(PID.TID 0000.0001)                 3.000380090330854E+05,      /* I = 18 */
(PID.TID 0000.0001)                 2.977867909042096E+05,      /* I = 19 */
(PID.TID 0000.0001)                 2.944035815526416E+05,      /* I = 20 */
(PID.TID 0000.0001)                 2.898778860929753E+05,      /* I = 21 */
(PID.TID 0000.0001)                 2.841906470085516E+05,      /* I = 22 */
(PID.TID 0000.0001)                 2.773091043277394E+05,      /* I = 23 */
(PID.TID 0000.0001)                 2.691790288994575E+05,      /* I = 24 */
(PID.TID 0000.0001)                 2.597126963772147E+05,      /* I = 25 */
(PID.TID 0000.0001)                 2.487693460283865E+05,      /* I = 26 */
(PID.TID 0000.0001)                 2.361211699596122E+05,      /* I = 27 */
(PID.TID 0000.0001)                 2.213884732245467E+05,      /* I = 28 */
(PID.TID 0000.0001)                 2.038999045536999E+05,      /* I = 29 */
(PID.TID 0000.0001)                 1.823321598773926E+05,      /* I = 30 */
(PID.TID 0000.0001)                 1.534505834330338E+05,      /* I = 31 */
(PID.TID 0000.0001)     2 @  1.009837800879055E+05,             /* I = 32: 33 */
(PID.TID 0000.0001)                 1.534505834330338E+05,      /* I = 34 */
(PID.TID 0000.0001)                 1.823321598773926E+05,      /* I = 35 */
(PID.TID 0000.0001)                 2.038999045536999E+05,      /* I = 36 */
(PID.TID 0000.0001)                 2.213884732245467E+05,      /* I = 37 */
(PID.TID 0000.0001)                 2.361211699596122E+05,      /* I = 38 */
(PID.TID 0000.0001)                 2.487693460283865E+05,      /* I = 39 */
(PID.TID 0000.0001)                 2.597126963772147E+05,      /* I = 40 */
(PID.TID 0000.0001)                 2.691790288994575E+05,      /* I = 41 */
(PID.TID 0000.0001)                 2.773091043277394E+05,      /* I = 42 */
(PID.TID 0000.0001)                 2.841906470085516E+05,      /* I = 43 */
(PID.TID 0000.0001)                 2.898778860929753E+05,      /* I = 44 */
(PID.TID 0000.0001)                 2.944035815526416E+05,      /* I = 45 */
(PID.TID 0000.0001)                 2.977867909042096E+05,      /* I = 46 */
(PID.TID 0000.0001)                 3.000380090330854E+05,      /* I = 47 */
(PID.TID 0000.0001)     2 @  3.011625828699101E+05,             /* I = 48: 49 */
(PID.TID 0000.0001)                 3.000380090330854E+05,      /* I = 50 */
(PID.TID 0000.0001)                 2.977867909042096E+05,      /* I = 51 */
(PID.TID 0000.0001)                 2.944035815526416E+05,      /* I = 52 */
(PID.TID 0000.0001)                 2.898778860929753E+05,      /* I = 53 */
(PID.TID 0000.0001)                 2.841906470085516E+05,      /* I = 54 */
(PID.TID 0000.0001)                 2.773091043277394E+05,      /* I = 55 */
(PID.TID 0000.0001)                 2.691790288994575E+05,      /* I = 56 */
(PID.TID 0000.0001)                 2.597126963772147E+05,      /* I = 57 */
(PID.TID 0000.0001)                 2.487693460283865E+05,      /* I = 58 */
(PID.TID 0000.0001)                 2.361211699596122E+05,      /* I = 59 */
(PID.TID 0000.0001)                 2.213884732245467E+05,      /* I = 60 */
(PID.TID 0000.0001)                 2.038999045536999E+05,      /* I = 61 */
(PID.TID 0000.0001)                 1.823321598773926E+05,      /* I = 62 */
(PID.TID 0000.0001)                 1.534505834330338E+05,      /* I = 63 */
(PID.TID 0000.0001)     2 @  1.009837800879055E+05,             /* I = 64: 65 */
(PID.TID 0000.0001)                 1.534505834330338E+05,      /* I = 66 */
(PID.TID 0000.0001)                 1.823321598773926E+05,      /* I = 67 */
(PID.TID 0000.0001)                 2.038999045536999E+05,      /* I = 68 */
(PID.TID 0000.0001)                 2.213884732245467E+05,      /* I = 69 */
(PID.TID 0000.0001)                 2.361211699596122E+05,      /* I = 70 */
(PID.TID 0000.0001)                 2.487693460283865E+05,      /* I = 71 */
(PID.TID 0000.0001)                 2.597126963772147E+05,      /* I = 72 */
(PID.TID 0000.0001)                 2.691790288994575E+05,      /* I = 73 */
(PID.TID 0000.0001)                 2.773091043277394E+05,      /* I = 74 */
(PID.TID 0000.0001)                 2.841906470085516E+05,      /* I = 75 */
(PID.TID 0000.0001)                 2.898778860929753E+05,      /* I = 76 */
(PID.TID 0000.0001)                 2.944035815526416E+05,      /* I = 77 */
(PID.TID 0000.0001)                 2.977867909042096E+05,      /* I = 78 */
(PID.TID 0000.0001)                 3.000380090330854E+05,      /* I = 79 */
(PID.TID 0000.0001)     2 @  3.011625828699101E+05,             /* I = 80: 81 */
(PID.TID 0000.0001)                 3.000380090330854E+05,      /* I = 82 */
(PID.TID 0000.0001)                 2.977867909042096E+05,      /* I = 83 */
(PID.TID 0000.0001)                 2.944035815526416E+05,      /* I = 84 */
(PID.TID 0000.0001)                 2.898778860929753E+05,      /* I = 85 */
(PID.TID 0000.0001)                 2.841906470085516E+05,      /* I = 86 */
(PID.TID 0000.0001)                 2.773091043277394E+05,      /* I = 87 */
(PID.TID 0000.0001)                 2.691790288994575E+05,      /* I = 88 */
(PID.TID 0000.0001)                 2.597126963772147E+05,      /* I = 89 */
(PID.TID 0000.0001)                 2.487693460283865E+05,      /* I = 90 */
(PID.TID 0000.0001)                 2.361211699596122E+05,      /* I = 91 */
(PID.TID 0000.0001)                 2.213884732245467E+05,      /* I = 92 */
(PID.TID 0000.0001)                 2.038999045536999E+05,      /* I = 93 */
(PID.TID 0000.0001)                 1.823321598773926E+05,      /* I = 94 */
(PID.TID 0000.0001)                 1.534505834330338E+05,      /* I = 95 */
(PID.TID 0000.0001)     2 @  1.009837800879055E+05,             /* I = 96: 97 */
(PID.TID 0000.0001)                 1.534505834330338E+05,      /* I = 98 */
(PID.TID 0000.0001)                 1.823321598773926E+05,      /* I = 99 */
(PID.TID 0000.0001)                 2.038999045536999E+05,      /* I =100 */
(PID.TID 0000.0001)                 2.213884732245467E+05,      /* I =101 */
(PID.TID 0000.0001)                 2.361211699596122E+05,      /* I =102 */
(PID.TID 0000.0001)                 2.487693460283865E+05,      /* I =103 */
(PID.TID 0000.0001)                 2.597126963772147E+05,      /* I =104 */
(PID.TID 0000.0001)                 2.691790288994575E+05,      /* I =105 */
(PID.TID 0000.0001)                 2.773091043277394E+05,      /* I =106 */
(PID.TID 0000.0001)                 2.841906470085516E+05,      /* I =107 */
(PID.TID 0000.0001)                 2.898778860929753E+05,      /* I =108 */
(PID.TID 0000.0001)                 2.944035815526416E+05,      /* I =109 */
(PID.TID 0000.0001)                 2.977867909042096E+05,      /* I =110 */
(PID.TID 0000.0001)                 3.000380090330854E+05,      /* I =111 */
(PID.TID 0000.0001)     2 @  3.011625828699101E+05,             /* I =112:113 */
(PID.TID 0000.0001)                 3.000380090330854E+05,      /* I =114 */
(PID.TID 0000.0001)                 2.977867909042096E+05,      /* I =115 */
(PID.TID 0000.0001)                 2.944035815526416E+05,      /* I =116 */
(PID.TID 0000.0001)                 2.898778860929753E+05,      /* I =117 */
(PID.TID 0000.0001)                 2.841906470085516E+05,      /* I =118 */
(PID.TID 0000.0001)                 2.773091043277394E+05,      /* I =119 */
(PID.TID 0000.0001)                 2.691790288994575E+05,      /* I =120 */
(PID.TID 0000.0001)                 2.597126963772147E+05,      /* I =121 */
(PID.TID 0000.0001)                 2.487693460283865E+05,      /* I =122 */
(PID.TID 0000.0001)                 2.361211699596122E+05,      /* I =123 */
(PID.TID 0000.0001)                 2.213884732245467E+05,      /* I =124 */
(PID.TID 0000.0001)                 2.038999045536999E+05,      /* I =125 */
(PID.TID 0000.0001)                 1.823321598773926E+05,      /* I =126 */
(PID.TID 0000.0001)                 1.534505834330338E+05,      /* I =127 */
(PID.TID 0000.0001)     2 @  1.009837800879055E+05,             /* I =128:129 */
(PID.TID 0000.0001)                 1.534505834330338E+05,      /* I =130 */
(PID.TID 0000.0001)                 1.823321598773926E+05,      /* I =131 */
(PID.TID 0000.0001)                 2.038999045536999E+05,      /* I =132 */
(PID.TID 0000.0001)                 2.213884732245467E+05,      /* I =133 */
(PID.TID 0000.0001)                 2.361211699596122E+05,      /* I =134 */
(PID.TID 0000.0001)                 2.487693460283865E+05,      /* I =135 */
(PID.TID 0000.0001)                 2.597126963772147E+05,      /* I =136 */
(PID.TID 0000.0001)                 2.691790288994575E+05,      /* I =137 */
(PID.TID 0000.0001)                 2.773091043277394E+05,      /* I =138 */
(PID.TID 0000.0001)                 2.841906470085516E+05,      /* I =139 */
(PID.TID 0000.0001)                 2.898778860929753E+05,      /* I =140 */
(PID.TID 0000.0001)                 2.944035815526416E+05,      /* I =141 */
(PID.TID 0000.0001)                 2.977867909042096E+05,      /* I =142 */
(PID.TID 0000.0001)                 3.000380090330854E+05,      /* I =143 */
(PID.TID 0000.0001)     2 @  3.011625828699101E+05,             /* I =144:145 */
(PID.TID 0000.0001)                 3.000380090330854E+05,      /* I =146 */
(PID.TID 0000.0001)                 2.977867909042096E+05,      /* I =147 */
(PID.TID 0000.0001)                 2.944035815526416E+05,      /* I =148 */
(PID.TID 0000.0001)                 2.898778860929753E+05,      /* I =149 */
(PID.TID 0000.0001)                 2.841906470085516E+05,      /* I =150 */
(PID.TID 0000.0001)                 2.773091043277394E+05,      /* I =151 */
(PID.TID 0000.0001)                 2.691790288994575E+05,      /* I =152 */
(PID.TID 0000.0001)                 2.597126963772147E+05,      /* I =153 */
(PID.TID 0000.0001)                 2.487693460283865E+05,      /* I =154 */
(PID.TID 0000.0001)                 2.361211699596122E+05,      /* I =155 */
(PID.TID 0000.0001)                 2.213884732245467E+05,      /* I =156 */
(PID.TID 0000.0001)                 2.038999045536999E+05,      /* I =157 */
(PID.TID 0000.0001)                 1.823321598773926E+05,      /* I =158 */
(PID.TID 0000.0001)                 1.534505834330338E+05,      /* I =159 */
(PID.TID 0000.0001)     2 @  1.009837800879055E+05,             /* I =160:161 */
(PID.TID 0000.0001)                 1.534505834330338E+05,      /* I =162 */
(PID.TID 0000.0001)                 1.823321598773926E+05,      /* I =163 */
(PID.TID 0000.0001)                 2.038999045536999E+05,      /* I =164 */
(PID.TID 0000.0001)                 2.213884732245467E+05,      /* I =165 */
(PID.TID 0000.0001)                 2.361211699596122E+05,      /* I =166 */
(PID.TID 0000.0001)                 2.487693460283865E+05,      /* I =167 */
(PID.TID 0000.0001)                 2.597126963772147E+05,      /* I =168 */
(PID.TID 0000.0001)                 2.691790288994575E+05,      /* I =169 */
(PID.TID 0000.0001)                 2.773091043277394E+05,      /* I =170 */
(PID.TID 0000.0001)                 2.841906470085516E+05,      /* I =171 */
(PID.TID 0000.0001)                 2.898778860929753E+05,      /* I =172 */
(PID.TID 0000.0001)                 2.944035815526416E+05,      /* I =173 */
(PID.TID 0000.0001)                 2.977867909042096E+05,      /* I =174 */
(PID.TID 0000.0001)                 3.000380090330854E+05,      /* I =175 */
(PID.TID 0000.0001)     2 @  3.011625828699101E+05,             /* I =176:177 */
(PID.TID 0000.0001)                 3.000380090330854E+05,      /* I =178 */
(PID.TID 0000.0001)                 2.977867909042096E+05,      /* I =179 */
(PID.TID 0000.0001)                 2.944035815526416E+05,      /* I =180 */
(PID.TID 0000.0001)                 2.898778860929753E+05,      /* I =181 */
(PID.TID 0000.0001)                 2.841906470085516E+05,      /* I =182 */
(PID.TID 0000.0001)                 2.773091043277394E+05,      /* I =183 */
(PID.TID 0000.0001)                 2.691790288994575E+05,      /* I =184 */
(PID.TID 0000.0001)                 2.597126963772147E+05,      /* I =185 */
(PID.TID 0000.0001)                 2.487693460283865E+05,      /* I =186 */
(PID.TID 0000.0001)                 2.361211699596122E+05,      /* I =187 */
(PID.TID 0000.0001)                 2.213884732245467E+05,      /* I =188 */
(PID.TID 0000.0001)                 2.038999045536999E+05,      /* I =189 */
(PID.TID 0000.0001)                 1.823321598773926E+05,      /* I =190 */
(PID.TID 0000.0001)                 1.534505834330338E+05,      /* I =191 */
(PID.TID 0000.0001)                 1.009837800879055E+05       /* I =192 */
(PID.TID 0000.0001)     ;
(PID.TID 0000.0001) dxG =  /* dxG(1,:,1,:) ( m - cartesian, degrees - spherical ) */
(PID.TID 0000.0001)                 1.009837800879055E+05,      /* J =  1 */
(PID.TID 0000.0001)                 1.403701524205398E+05,      /* J =  2 */
(PID.TID 0000.0001)                 1.716197227386011E+05,      /* J =  3 */
(PID.TID 0000.0001)                 1.950254041626018E+05,      /* J =  4 */
(PID.TID 0000.0001)                 2.138410773065497E+05,      /* J =  5 */
(PID.TID 0000.0001)                 2.295958105911512E+05,      /* J =  6 */
(PID.TID 0000.0001)                 2.430829951739083E+05,      /* J =  7 */
(PID.TID 0000.0001)                 2.547526806712889E+05,      /* J =  8 */
(PID.TID 0000.0001)                 2.648750305193301E+05,      /* J =  9 */
(PID.TID 0000.0001)                 2.736173771018112E+05,      /* J = 10 */
(PID.TID 0000.0001)                 2.810845823202647E+05,      /* J = 11 */
(PID.TID 0000.0001)                 2.873420591008078E+05,      /* J = 12 */
(PID.TID 0000.0001)                 2.924298293668651E+05,      /* J = 13 */
(PID.TID 0000.0001)                 2.963715635865306E+05,      /* J = 14 */
(PID.TID 0000.0001)                 2.991805843171258E+05,      /* J = 15 */
(PID.TID 0000.0001)                 3.008638765647886E+05,      /* J = 16 */
(PID.TID 0000.0001)                 3.014246674484008E+05,      /* J = 17 */
(PID.TID 0000.0001)                 3.008638765647886E+05,      /* J = 18 */
(PID.TID 0000.0001)                 2.991805843171258E+05,      /* J = 19 */
(PID.TID 0000.0001)                 2.963715635865306E+05,      /* J = 20 */
(PID.TID 0000.0001)                 2.924298293668651E+05,      /* J = 21 */
(PID.TID 0000.0001)                 2.873420591008078E+05,      /* J = 22 */
(PID.TID 0000.0001)                 2.810845823202647E+05,      /* J = 23 */
(PID.TID 0000.0001)                 2.736173771018112E+05,      /* J = 24 */
(PID.TID 0000.0001)                 2.648750305193301E+05,      /* J = 25 */
(PID.TID 0000.0001)                 2.547526806712889E+05,      /* J = 26 */
(PID.TID 0000.0001)                 2.430829951739083E+05,      /* J = 27 */
(PID.TID 0000.0001)                 2.295958105911512E+05,      /* J = 28 */
(PID.TID 0000.0001)                 2.138410773065497E+05,      /* J = 29 */
(PID.TID 0000.0001)                 1.950254041626018E+05,      /* J = 30 */
(PID.TID 0000.0001)                 1.716197227386011E+05,      /* J = 31 */
(PID.TID 0000.0001)                 1.403701524205398E+05       /* J = 32 */
(PID.TID 0000.0001)     ;
(PID.TID 0000.0001) dyG =  /* dyG(:,1,:,1) ( m - cartesian, degrees - spherical ) */
(PID.TID 0000.0001)                 1.009837800879055E+05,      /* I =  1 */
(PID.TID 0000.0001)                 1.403701524205398E+05,      /* I =  2 */
(PID.TID 0000.0001)                 1.716197227386011E+05,      /* I =  3 */
(PID.TID 0000.0001)                 1.950254041626018E+05,      /* I =  4 */
(PID.TID 0000.0001)                 2.138410773065497E+05,      /* I =  5 */
(PID.TID 0000.0001)                 2.295958105911512E+05,      /* I =  6 */
(PID.TID 0000.0001)                 2.430829951739083E+05,      /* I =  7 */
(PID.TID 0000.0001)                 2.547526806712889E+05,      /* I =  8 */
(PID.TID 0000.0001)                 2.648750305193301E+05,      /* I =  9 */
(PID.TID 0000.0001)                 2.736173771018112E+05,      /* I = 10 */
(PID.TID 0000.0001)                 2.810845823202647E+05,      /* I = 11 */
(PID.TID 0000.0001)                 2.873420591008078E+05,      /* I = 12 */
(PID.TID 0000.0001)                 2.924298293668651E+05,      /* I = 13 */
(PID.TID 0000.0001)                 2.963715635865306E+05,      /* I = 14 */
(PID.TID 0000.0001)                 2.991805843171258E+05,      /* I = 15 */
(PID.TID 0000.0001)                 3.008638765647886E+05,      /* I = 16 */
(PID.TID 0000.0001)                 3.014246674484008E+05,      /* I = 17 */
(PID.TID 0000.0001)                 3.008638765647886E+05,      /* I = 18 */
(PID.TID 0000.0001)                 2.991805843171258E+05,      /* I = 19 */
(PID.TID 0000.0001)                 2.963715635865306E+05,      /* I = 20 */
(PID.TID 0000.0001)                 2.924298293668651E+05,      /* I = 21 */
(PID.TID 0000.0001)                 2.873420591008078E+05,      /* I = 22 */
(PID.TID 0000.0001)                 2.810845823202647E+05,      /* I = 23 */
(PID.TID 0000.0001)                 2.736173771018112E+05,      /* I = 24 */
(PID.TID 0000.0001)                 2.648750305193301E+05,      /* I = 25 */
(PID.TID 0000.0001)                 2.547526806712889E+05,      /* I = 26 */
(PID.TID 0000.0001)                 2.430829951739083E+05,      /* I = 27 */
(PID.TID 0000.0001)                 2.295958105911512E+05,      /* I = 28 */
(PID.TID 0000.0001)                 2.138410773065497E+05,      /* I = 29 */
(PID.TID 0000.0001)                 1.950254041626018E+05,      /* I = 30 */
(PID.TID 0000.0001)                 1.716197227386011E+05,      /* I = 31 */
(PID.TID 0000.0001)                 1.403701524205398E+05,      /* I = 32 */
(PID.TID 0000.0001)                 1.009837800879055E+05,      /* I = 33 */
(PID.TID 0000.0001)                 1.403701524205398E+05,      /* I = 34 */
(PID.TID 0000.0001)                 1.716197227386011E+05,      /* I = 35 */
(PID.TID 0000.0001)                 1.950254041626018E+05,      /* I = 36 */
(PID.TID 0000.0001)                 2.138410773065497E+05,      /* I = 37 */
(PID.TID 0000.0001)                 2.295958105911512E+05,      /* I = 38 */
(PID.TID 0000.0001)                 2.430829951739083E+05,      /* I = 39 */
(PID.TID 0000.0001)                 2.547526806712889E+05,      /* I = 40 */
(PID.TID 0000.0001)                 2.648750305193301E+05,      /* I = 41 */
(PID.TID 0000.0001)                 2.736173771018112E+05,      /* I = 42 */
(PID.TID 0000.0001)                 2.810845823202647E+05,      /* I = 43 */
(PID.TID 0000.0001)                 2.873420591008078E+05,      /* I = 44 */
(PID.TID 0000.0001)                 2.924298293668651E+05,      /* I = 45 */
(PID.TID 0000.0001)                 2.963715635865306E+05,      /* I = 46 */
(PID.TID 0000.0001)                 2.991805843171258E+05,      /* I = 47 */
(PID.TID 0000.0001)                 3.008638765647886E+05,      /* I = 48 */
(PID.TID 0000.0001)                 3.014246674484008E+05,      /* I = 49 */
(PID.TID 0000.0001)                 3.008638765647886E+05,      /* I = 50 */
(PID.TID 0000.0001)                 2.991805843171258E+05,      /* I = 51 */
(PID.TID 0000.0001)                 2.963715635865306E+05,      /* I = 52 */
(PID.TID 0000.0001)                 2.924298293668651E+05,      /* I = 53 */
(PID.TID 0000.0001)                 2.873420591008078E+05,      /* I = 54 */
(PID.TID 0000.0001)                 2.810845823202647E+05,      /* I = 55 */
(PID.TID 0000.0001)                 2.736173771018112E+05,      /* I = 56 */
(PID.TID 0000.0001)                 2.648750305193301E+05,      /* I = 57 */
(PID.TID 0000.0001)                 2.547526806712889E+05,      /* I = 58 */
(PID.TID 0000.0001)                 2.430829951739083E+05,      /* I = 59 */
(PID.TID 0000.0001)                 2.295958105911512E+05,      /* I = 60 */
(PID.TID 0000.0001)                 2.138410773065497E+05,      /* I = 61 */
(PID.TID 0000.0001)                 1.950254041626018E+05,      /* I = 62 */
(PID.TID 0000.0001)                 1.716197227386011E+05,      /* I = 63 */
(PID.TID 0000.0001)                 1.403701524205398E+05,      /* I = 64 */
(PID.TID 0000.0001)                 1.009837800879055E+05,      /* I = 65 */
(PID.TID 0000.0001)                 1.403701524205398E+05,      /* I = 66 */
(PID.TID 0000.0001)                 1.716197227386011E+05,      /* I = 67 */
(PID.TID 0000.0001)                 1.950254041626018E+05,      /* I = 68 */
(PID.TID 0000.0001)                 2.138410773065497E+05,      /* I = 69 */
(PID.TID 0000.0001)                 2.295958105911512E+05,      /* I = 70 */
(PID.TID 0000.0001)                 2.430829951739083E+05,      /* I = 71 */
(PID.TID 0000.0001)                 2.547526806712889E+05,      /* I = 72 */
(PID.TID 0000.0001)                 2.648750305193301E+05,      /* I = 73 */
(PID.TID 0000.0001)                 2.736173771018112E+05,      /* I = 74 */
(PID.TID 0000.0001)                 2.810845823202647E+05,      /* I = 75 */
(PID.TID 0000.0001)                 2.873420591008078E+05,      /* I = 76 */
(PID.TID 0000.0001)                 2.924298293668651E+05,      /* I = 77 */
(PID.TID 0000.0001)                 2.963715635865306E+05,      /* I = 78 */
(PID.TID 0000.0001)                 2.991805843171258E+05,      /* I = 79 */
(PID.TID 0000.0001)                 3.008638765647886E+05,      /* I = 80 */
(PID.TID 0000.0001)                 3.014246674484008E+05,      /* I = 81 */
(PID.TID 0000.0001)                 3.008638765647886E+05,      /* I = 82 */
(PID.TID 0000.0001)                 2.991805843171258E+05,      /* I = 83 */
(PID.TID 0000.0001)                 2.963715635865306E+05,      /* I = 84 */
(PID.TID 0000.0001)                 2.924298293668651E+05,      /* I = 85 */
(PID.TID 0000.0001)                 2.873420591008078E+05,      /* I = 86 */
(PID.TID 0000.0001)                 2.810845823202647E+05,      /* I = 87 */
(PID.TID 0000.0001)                 2.736173771018112E+05,      /* I = 88 */
(PID.TID 0000.0001)                 2.648750305193301E+05,      /* I = 89 */
(PID.TID 0000.0001)                 2.547526806712889E+05,      /* I = 90 */
(PID.TID 0000.0001)                 2.430829951739083E+05,      /* I = 91 */
(PID.TID 0000.0001)                 2.295958105911512E+05,      /* I = 92 */
(PID.TID 0000.0001)                 2.138410773065497E+05,      /* I = 93 */
(PID.TID 0000.0001)                 1.950254041626018E+05,      /* I = 94 */
(PID.TID 0000.0001)                 1.716197227386011E+05,      /* I = 95 */
(PID.TID 0000.0001)                 1.403701524205398E+05,      /* I = 96 */
(PID.TID 0000.0001)                 1.009837800879055E+05,      /* I = 97 */
(PID.TID 0000.0001)                 1.403701524205398E+05,      /* I = 98 */
(PID.TID 0000.0001)                 1.716197227386011E+05,      /* I = 99 */
(PID.TID 0000.0001)                 1.950254041626018E+05,      /* I =100 */
(PID.TID 0000.0001)                 2.138410773065497E+05,      /* I =101 */
(PID.TID 0000.0001)                 2.295958105911512E+05,      /* I =102 */
(PID.TID 0000.0001)                 2.430829951739083E+05,      /* I =103 */
(PID.TID 0000.0001)                 2.547526806712889E+05,      /* I =104 */
(PID.TID 0000.0001)                 2.648750305193301E+05,      /* I =105 */
(PID.TID 0000.0001)                 2.736173771018112E+05,      /* I =106 */
(PID.TID 0000.0001)                 2.810845823202647E+05,      /* I =107 */
(PID.TID 0000.0001)                 2.873420591008078E+05,      /* I =108 */
(PID.TID 0000.0001)                 2.924298293668651E+05,      /* I =109 */
(PID.TID 0000.0001)                 2.963715635865306E+05,      /* I =110 */
(PID.TID 0000.0001)                 2.991805843171258E+05,      /* I =111 */
(PID.TID 0000.0001)                 3.008638765647886E+05,      /* I =112 */
(PID.TID 0000.0001)                 3.014246674484008E+05,      /* I =113 */
(PID.TID 0000.0001)                 3.008638765647886E+05,      /* I =114 */
(PID.TID 0000.0001)                 2.991805843171258E+05,      /* I =115 */
(PID.TID 0000.0001)                 2.963715635865306E+05,      /* I =116 */
(PID.TID 0000.0001)                 2.924298293668651E+05,      /* I =117 */
(PID.TID 0000.0001)                 2.873420591008078E+05,      /* I =118 */
(PID.TID 0000.0001)                 2.810845823202647E+05,      /* I =119 */
(PID.TID 0000.0001)                 2.736173771018112E+05,      /* I =120 */
(PID.TID 0000.0001)                 2.648750305193301E+05,      /* I =121 */
(PID.TID 0000.0001)                 2.547526806712889E+05,      /* I =122 */
(PID.TID 0000.0001)                 2.430829951739083E+05,      /* I =123 */
(PID.TID 0000.0001)                 2.295958105911512E+05,      /* I =124 */
(PID.TID 0000.0001)                 2.138410773065497E+05,      /* I =125 */
(PID.TID 0000.0001)                 1.950254041626018E+05,      /* I =126 */
(PID.TID 0000.0001)                 1.716197227386011E+05,      /* I =127 */
(PID.TID 0000.0001)                 1.403701524205398E+05,      /* I =128 */
(PID.TID 0000.0001)                 1.009837800879055E+05,      /* I =129 */
(PID.TID 0000.0001)                 1.403701524205398E+05,      /* I =130 */
(PID.TID 0000.0001)                 1.716197227386011E+05,      /* I =131 */
(PID.TID 0000.0001)                 1.950254041626018E+05,      /* I =132 */
(PID.TID 0000.0001)                 2.138410773065497E+05,      /* I =133 */
(PID.TID 0000.0001)                 2.295958105911512E+05,      /* I =134 */
(PID.TID 0000.0001)                 2.430829951739083E+05,      /* I =135 */
(PID.TID 0000.0001)                 2.547526806712889E+05,      /* I =136 */
(PID.TID 0000.0001)                 2.648750305193301E+05,      /* I =137 */
(PID.TID 0000.0001)                 2.736173771018112E+05,      /* I =138 */
(PID.TID 0000.0001)                 2.810845823202647E+05,      /* I =139 */
(PID.TID 0000.0001)                 2.873420591008078E+05,      /* I =140 */
(PID.TID 0000.0001)                 2.924298293668651E+05,      /* I =141 */
(PID.TID 0000.0001)                 2.963715635865306E+05,      /* I =142 */
(PID.TID 0000.0001)                 2.991805843171258E+05,      /* I =143 */
(PID.TID 0000.0001)                 3.008638765647886E+05,      /* I =144 */
(PID.TID 0000.0001)                 3.014246674484008E+05,      /* I =145 */
(PID.TID 0000.0001)                 3.008638765647886E+05,      /* I =146 */
(PID.TID 0000.0001)                 2.991805843171258E+05,      /* I =147 */
(PID.TID 0000.0001)                 2.963715635865306E+05,      /* I =148 */
(PID.TID 0000.0001)                 2.924298293668651E+05,      /* I =149 */
(PID.TID 0000.0001)                 2.873420591008078E+05,      /* I =150 */
(PID.TID 0000.0001)                 2.810845823202647E+05,      /* I =151 */
(PID.TID 0000.0001)                 2.736173771018112E+05,      /* I =152 */
(PID.TID 0000.0001)                 2.648750305193301E+05,      /* I =153 */
(PID.TID 0000.0001)                 2.547526806712889E+05,      /* I =154 */
(PID.TID 0000.0001)                 2.430829951739083E+05,      /* I =155 */
(PID.TID 0000.0001)                 2.295958105911512E+05,      /* I =156 */
(PID.TID 0000.0001)                 2.138410773065497E+05,      /* I =157 */
(PID.TID 0000.0001)                 1.950254041626018E+05,      /* I =158 */
(PID.TID 0000.0001)                 1.716197227386011E+05,      /* I =159 */
(PID.TID 0000.0001)                 1.403701524205398E+05,      /* I =160 */
(PID.TID 0000.0001)                 1.009837800879055E+05,      /* I =161 */
(PID.TID 0000.0001)                 1.403701524205398E+05,      /* I =162 */
(PID.TID 0000.0001)                 1.716197227386011E+05,      /* I =163 */
(PID.TID 0000.0001)                 1.950254041626018E+05,      /* I =164 */
(PID.TID 0000.0001)                 2.138410773065497E+05,      /* I =165 */
(PID.TID 0000.0001)                 2.295958105911512E+05,      /* I =166 */
(PID.TID 0000.0001)                 2.430829951739083E+05,      /* I =167 */
(PID.TID 0000.0001)                 2.547526806712889E+05,      /* I =168 */
(PID.TID 0000.0001)                 2.648750305193301E+05,      /* I =169 */
(PID.TID 0000.0001)                 2.736173771018112E+05,      /* I =170 */
(PID.TID 0000.0001)                 2.810845823202647E+05,      /* I =171 */
(PID.TID 0000.0001)                 2.873420591008078E+05,      /* I =172 */
(PID.TID 0000.0001)                 2.924298293668651E+05,      /* I =173 */
(PID.TID 0000.0001)                 2.963715635865306E+05,      /* I =174 */
(PID.TID 0000.0001)                 2.991805843171258E+05,      /* I =175 */
(PID.TID 0000.0001)                 3.008638765647886E+05,      /* I =176 */
(PID.TID 0000.0001)                 3.014246674484008E+05,      /* I =177 */
(PID.TID 0000.0001)                 3.008638765647886E+05,      /* I =178 */
(PID.TID 0000.0001)                 2.991805843171258E+05,      /* I =179 */
(PID.TID 0000.0001)                 2.963715635865306E+05,      /* I =180 */
(PID.TID 0000.0001)                 2.924298293668651E+05,      /* I =181 */
(PID.TID 0000.0001)                 2.873420591008078E+05,      /* I =182 */
(PID.TID 0000.0001)                 2.810845823202647E+05,      /* I =183 */
(PID.TID 0000.0001)                 2.736173771018112E+05,      /* I =184 */
(PID.TID 0000.0001)                 2.648750305193301E+05,      /* I =185 */
(PID.TID 0000.0001)                 2.547526806712889E+05,      /* I =186 */
(PID.TID 0000.0001)                 2.430829951739083E+05,      /* I =187 */
(PID.TID 0000.0001)                 2.295958105911512E+05,      /* I =188 */
(PID.TID 0000.0001)                 2.138410773065497E+05,      /* I =189 */
(PID.TID 0000.0001)                 1.950254041626018E+05,      /* I =190 */
(PID.TID 0000.0001)                 1.716197227386011E+05,      /* I =191 */
(PID.TID 0000.0001)                 1.403701524205398E+05       /* I =192 */
(PID.TID 0000.0001)     ;
(PID.TID 0000.0001) dyG =  /* dyG(1,:,1,:) ( m - cartesian, degrees - spherical ) */
(PID.TID 0000.0001)                 1.009837800879055E+05,      /* J =  1 */
(PID.TID 0000.0001)                 1.534505834330338E+05,      /* J =  2 */
(PID.TID 0000.0001)                 1.823321598773926E+05,      /* J =  3 */
(PID.TID 0000.0001)                 2.038999045536999E+05,      /* J =  4 */
(PID.TID 0000.0001)                 2.213884732245467E+05,      /* J =  5 */
(PID.TID 0000.0001)                 2.361211699596122E+05,      /* J =  6 */
(PID.TID 0000.0001)                 2.487693460283865E+05,      /* J =  7 */
(PID.TID 0000.0001)                 2.597126963772147E+05,      /* J =  8 */
(PID.TID 0000.0001)                 2.691790288994575E+05,      /* J =  9 */
(PID.TID 0000.0001)                 2.773091043277394E+05,      /* J = 10 */
(PID.TID 0000.0001)                 2.841906470085516E+05,      /* J = 11 */
(PID.TID 0000.0001)                 2.898778860929753E+05,      /* J = 12 */
(PID.TID 0000.0001)                 2.944035815526416E+05,      /* J = 13 */
(PID.TID 0000.0001)                 2.977867909042096E+05,      /* J = 14 */
(PID.TID 0000.0001)                 3.000380090330854E+05,      /* J = 15 */
(PID.TID 0000.0001)     2 @  3.011625828699101E+05,             /* J = 16: 17 */
(PID.TID 0000.0001)                 3.000380090330854E+05,      /* J = 18 */
(PID.TID 0000.0001)                 2.977867909042096E+05,      /* J = 19 */
(PID.TID 0000.0001)                 2.944035815526416E+05,      /* J = 20 */
(PID.TID 0000.0001)                 2.898778860929753E+05,      /* J = 21 */
(PID.TID 0000.0001)                 2.841906470085516E+05,      /* J = 22 */
(PID.TID 0000.0001)                 2.773091043277394E+05,      /* J = 23 */
(PID.TID 0000.0001)                 2.691790288994575E+05,      /* J = 24 */
(PID.TID 0000.0001)                 2.597126963772147E+05,      /* J = 25 */
(PID.TID 0000.0001)                 2.487693460283865E+05,      /* J = 26 */
(PID.TID 0000.0001)                 2.361211699596122E+05,      /* J = 27 */
(PID.TID 0000.0001)                 2.213884732245467E+05,      /* J = 28 */
(PID.TID 0000.0001)                 2.038999045536999E+05,      /* J = 29 */
(PID.TID 0000.0001)                 1.823321598773926E+05,      /* J = 30 */
(PID.TID 0000.0001)                 1.534505834330338E+05,      /* J = 31 */
(PID.TID 0000.0001)                 1.009837800879055E+05       /* J = 32 */
(PID.TID 0000.0001)     ;
(PID.TID 0000.0001) dxC =  /* dxC(:,1,:,1) ( m - cartesian, degrees - spherical ) */
(PID.TID 0000.0001)                 1.114203141013064E+05,      /* I =  1 */
(PID.TID 0000.0001)                 1.391343389937106E+05,      /* I =  2 */
(PID.TID 0000.0001)                 1.709574999026266E+05,      /* I =  3 */
(PID.TID 0000.0001)                 1.946503699269892E+05,      /* I =  4 */
(PID.TID 0000.0001)                 2.135964483342134E+05,      /* I =  5 */
(PID.TID 0000.0001)                 2.294195678257306E+05,      /* I =  6 */
(PID.TID 0000.0001)                 2.429464709770498E+05,      /* I =  7 */
(PID.TID 0000.0001)                 2.546408290696998E+05,      /* I =  8 */
(PID.TID 0000.0001)                 2.647791839299727E+05,      /* I =  9 */
(PID.TID 0000.0001)                 2.735321911346108E+05,      /* I = 10 */
(PID.TID 0000.0001)                 2.810065951609633E+05,      /* I = 11 */
(PID.TID 0000.0001)                 2.872689479506990E+05,      /* I = 12 */
(PID.TID 0000.0001)                 2.923599955312932E+05,      /* I = 13 */
(PID.TID 0000.0001)                 2.963038832565530E+05,      /* I = 14 */
(PID.TID 0000.0001)                 2.991142470004740E+05,      /* I = 15 */
(PID.TID 0000.0001)                 3.007982711627968E+05,      /* I = 16 */
(PID.TID 0000.0001)                 3.013593857228136E+05,      /* I = 17 */
(PID.TID 0000.0001)                 3.007982711627968E+05,      /* I = 18 */
(PID.TID 0000.0001)                 2.991142470004740E+05,      /* I = 19 */
(PID.TID 0000.0001)                 2.963038832565530E+05,      /* I = 20 */
(PID.TID 0000.0001)                 2.923599955312932E+05,      /* I = 21 */
(PID.TID 0000.0001)                 2.872689479506990E+05,      /* I = 22 */
(PID.TID 0000.0001)                 2.810065951609633E+05,      /* I = 23 */
(PID.TID 0000.0001)                 2.735321911346108E+05,      /* I = 24 */
(PID.TID 0000.0001)                 2.647791839299727E+05,      /* I = 25 */
(PID.TID 0000.0001)                 2.546408290696998E+05,      /* I = 26 */
(PID.TID 0000.0001)                 2.429464709770498E+05,      /* I = 27 */
(PID.TID 0000.0001)                 2.294195678257306E+05,      /* I = 28 */
(PID.TID 0000.0001)                 2.135964483342134E+05,      /* I = 29 */
(PID.TID 0000.0001)                 1.946503699269892E+05,      /* I = 30 */
(PID.TID 0000.0001)                 1.709574999026266E+05,      /* I = 31 */
(PID.TID 0000.0001)                 1.391343389937106E+05,      /* I = 32 */
(PID.TID 0000.0001)                 1.114203141013064E+05,      /* I = 33 */
(PID.TID 0000.0001)                 1.391343389937106E+05,      /* I = 34 */
(PID.TID 0000.0001)                 1.709574999026266E+05,      /* I = 35 */
(PID.TID 0000.0001)                 1.946503699269892E+05,      /* I = 36 */
(PID.TID 0000.0001)                 2.135964483342134E+05,      /* I = 37 */
(PID.TID 0000.0001)                 2.294195678257306E+05,      /* I = 38 */
(PID.TID 0000.0001)                 2.429464709770498E+05,      /* I = 39 */
(PID.TID 0000.0001)                 2.546408290696998E+05,      /* I = 40 */
(PID.TID 0000.0001)                 2.647791839299727E+05,      /* I = 41 */
(PID.TID 0000.0001)                 2.735321911346108E+05,      /* I = 42 */
(PID.TID 0000.0001)                 2.810065951609633E+05,      /* I = 43 */
(PID.TID 0000.0001)                 2.872689479506990E+05,      /* I = 44 */
(PID.TID 0000.0001)                 2.923599955312932E+05,      /* I = 45 */
(PID.TID 0000.0001)                 2.963038832565530E+05,      /* I = 46 */
(PID.TID 0000.0001)                 2.991142470004740E+05,      /* I = 47 */
(PID.TID 0000.0001)                 3.007982711627968E+05,      /* I = 48 */
(PID.TID 0000.0001)                 3.013593857228136E+05,      /* I = 49 */
(PID.TID 0000.0001)                 3.007982711627968E+05,      /* I = 50 */
(PID.TID 0000.0001)                 2.991142470004740E+05,      /* I = 51 */
(PID.TID 0000.0001)                 2.963038832565530E+05,      /* I = 52 */
(PID.TID 0000.0001)                 2.923599955312932E+05,      /* I = 53 */
(PID.TID 0000.0001)                 2.872689479506990E+05,      /* I = 54 */
(PID.TID 0000.0001)                 2.810065951609633E+05,      /* I = 55 */
(PID.TID 0000.0001)                 2.735321911346108E+05,      /* I = 56 */
(PID.TID 0000.0001)                 2.647791839299727E+05,      /* I = 57 */
(PID.TID 0000.0001)                 2.546408290696998E+05,      /* I = 58 */
(PID.TID 0000.0001)                 2.429464709770498E+05,      /* I = 59 */
(PID.TID 0000.0001)                 2.294195678257306E+05,      /* I = 60 */
(PID.TID 0000.0001)                 2.135964483342134E+05,      /* I = 61 */
(PID.TID 0000.0001)                 1.946503699269892E+05,      /* I = 62 */
(PID.TID 0000.0001)                 1.709574999026266E+05,      /* I = 63 */
(PID.TID 0000.0001)                 1.391343389937106E+05,      /* I = 64 */
(PID.TID 0000.0001)                 1.114203141013064E+05,      /* I = 65 */
(PID.TID 0000.0001)                 1.391343389937106E+05,      /* I = 66 */
(PID.TID 0000.0001)                 1.709574999026266E+05,      /* I = 67 */
(PID.TID 0000.0001)                 1.946503699269892E+05,      /* I = 68 */
(PID.TID 0000.0001)                 2.135964483342134E+05,      /* I = 69 */
(PID.TID 0000.0001)                 2.294195678257306E+05,      /* I = 70 */
(PID.TID 0000.0001)                 2.429464709770498E+05,      /* I = 71 */
(PID.TID 0000.0001)                 2.546408290696998E+05,      /* I = 72 */
(PID.TID 0000.0001)                 2.647791839299727E+05,      /* I = 73 */
(PID.TID 0000.0001)                 2.735321911346108E+05,      /* I = 74 */
(PID.TID 0000.0001)                 2.810065951609633E+05,      /* I = 75 */
(PID.TID 0000.0001)                 2.872689479506990E+05,      /* I = 76 */
(PID.TID 0000.0001)                 2.923599955312932E+05,      /* I = 77 */
(PID.TID 0000.0001)                 2.963038832565530E+05,      /* I = 78 */
(PID.TID 0000.0001)                 2.991142470004740E+05,      /* I = 79 */
(PID.TID 0000.0001)                 3.007982711627968E+05,      /* I = 80 */
(PID.TID 0000.0001)                 3.013593857228136E+05,      /* I = 81 */
(PID.TID 0000.0001)                 3.007982711627968E+05,      /* I = 82 */
(PID.TID 0000.0001)                 2.991142470004740E+05,      /* I = 83 */
(PID.TID 0000.0001)                 2.963038832565530E+05,      /* I = 84 */
(PID.TID 0000.0001)                 2.923599955312932E+05,      /* I = 85 */
(PID.TID 0000.0001)                 2.872689479506990E+05,      /* I = 86 */
(PID.TID 0000.0001)                 2.810065951609633E+05,      /* I = 87 */
(PID.TID 0000.0001)                 2.735321911346108E+05,      /* I = 88 */
(PID.TID 0000.0001)                 2.647791839299727E+05,      /* I = 89 */
(PID.TID 0000.0001)                 2.546408290696998E+05,      /* I = 90 */
(PID.TID 0000.0001)                 2.429464709770498E+05,      /* I = 91 */
(PID.TID 0000.0001)                 2.294195678257306E+05,      /* I = 92 */
(PID.TID 0000.0001)                 2.135964483342134E+05,      /* I = 93 */
(PID.TID 0000.0001)                 1.946503699269892E+05,      /* I = 94 */
(PID.TID 0000.0001)                 1.709574999026266E+05,      /* I = 95 */
(PID.TID 0000.0001)                 1.391343389937106E+05,      /* I = 96 */
(PID.TID 0000.0001)                 1.114203141013064E+05,      /* I = 97 */
(PID.TID 0000.0001)                 1.391343389937106E+05,      /* I = 98 */
(PID.TID 0000.0001)                 1.709574999026266E+05,      /* I = 99 */
(PID.TID 0000.0001)                 1.946503699269892E+05,      /* I =100 */
(PID.TID 0000.0001)                 2.135964483342134E+05,      /* I =101 */
(PID.TID 0000.0001)                 2.294195678257306E+05,      /* I =102 */
(PID.TID 0000.0001)                 2.429464709770498E+05,      /* I =103 */
(PID.TID 0000.0001)                 2.546408290696998E+05,      /* I =104 */
(PID.TID 0000.0001)                 2.647791839299727E+05,      /* I =105 */
(PID.TID 0000.0001)                 2.735321911346108E+05,      /* I =106 */
(PID.TID 0000.0001)                 2.810065951609633E+05,      /* I =107 */
(PID.TID 0000.0001)                 2.872689479506990E+05,      /* I =108 */
(PID.TID 0000.0001)                 2.923599955312932E+05,      /* I =109 */
(PID.TID 0000.0001)                 2.963038832565530E+05,      /* I =110 */
(PID.TID 0000.0001)                 2.991142470004740E+05,      /* I =111 */
(PID.TID 0000.0001)                 3.007982711627968E+05,      /* I =112 */
(PID.TID 0000.0001)                 3.013593857228136E+05,      /* I =113 */
(PID.TID 0000.0001)                 3.007982711627968E+05,      /* I =114 */
(PID.TID 0000.0001)                 2.991142470004740E+05,      /* I =115 */
(PID.TID 0000.0001)                 2.963038832565530E+05,      /* I =116 */
(PID.TID 0000.0001)                 2.923599955312932E+05,      /* I =117 */
(PID.TID 0000.0001)                 2.872689479506990E+05,      /* I =118 */
(PID.TID 0000.0001)                 2.810065951609633E+05,      /* I =119 */
(PID.TID 0000.0001)                 2.735321911346108E+05,      /* I =120 */
(PID.TID 0000.0001)                 2.647791839299727E+05,      /* I =121 */
(PID.TID 0000.0001)                 2.546408290696998E+05,      /* I =122 */
(PID.TID 0000.0001)                 2.429464709770498E+05,      /* I =123 */
(PID.TID 0000.0001)                 2.294195678257306E+05,      /* I =124 */
(PID.TID 0000.0001)                 2.135964483342134E+05,      /* I =125 */
(PID.TID 0000.0001)                 1.946503699269892E+05,      /* I =126 */
(PID.TID 0000.0001)                 1.709574999026266E+05,      /* I =127 */
(PID.TID 0000.0001)                 1.391343389937106E+05,      /* I =128 */
(PID.TID 0000.0001)                 1.114203141013064E+05,      /* I =129 */
(PID.TID 0000.0001)                 1.391343389937106E+05,      /* I =130 */
(PID.TID 0000.0001)                 1.709574999026266E+05,      /* I =131 */
(PID.TID 0000.0001)                 1.946503699269892E+05,      /* I =132 */
(PID.TID 0000.0001)                 2.135964483342134E+05,      /* I =133 */
(PID.TID 0000.0001)                 2.294195678257306E+05,      /* I =134 */
(PID.TID 0000.0001)                 2.429464709770498E+05,      /* I =135 */
(PID.TID 0000.0001)                 2.546408290696998E+05,      /* I =136 */
(PID.TID 0000.0001)                 2.647791839299727E+05,      /* I =137 */
(PID.TID 0000.0001)                 2.735321911346108E+05,      /* I =138 */
(PID.TID 0000.0001)                 2.810065951609633E+05,      /* I =139 */
(PID.TID 0000.0001)                 2.872689479506990E+05,      /* I =140 */
(PID.TID 0000.0001)                 2.923599955312932E+05,      /* I =141 */
(PID.TID 0000.0001)                 2.963038832565530E+05,      /* I =142 */
(PID.TID 0000.0001)                 2.991142470004740E+05,      /* I =143 */
(PID.TID 0000.0001)                 3.007982711627968E+05,      /* I =144 */
(PID.TID 0000.0001)                 3.013593857228136E+05,      /* I =145 */
(PID.TID 0000.0001)                 3.007982711627968E+05,      /* I =146 */
(PID.TID 0000.0001)                 2.991142470004740E+05,      /* I =147 */
(PID.TID 0000.0001)                 2.963038832565530E+05,      /* I =148 */
(PID.TID 0000.0001)                 2.923599955312932E+05,      /* I =149 */
(PID.TID 0000.0001)                 2.872689479506990E+05,      /* I =150 */
(PID.TID 0000.0001)                 2.810065951609633E+05,      /* I =151 */
(PID.TID 0000.0001)                 2.735321911346108E+05,      /* I =152 */
(PID.TID 0000.0001)                 2.647791839299727E+05,      /* I =153 */
(PID.TID 0000.0001)                 2.546408290696998E+05,      /* I =154 */
(PID.TID 0000.0001)                 2.429464709770498E+05,      /* I =155 */
(PID.TID 0000.0001)                 2.294195678257306E+05,      /* I =156 */
(PID.TID 0000.0001)                 2.135964483342134E+05,      /* I =157 */
(PID.TID 0000.0001)                 1.946503699269892E+05,      /* I =158 */
(PID.TID 0000.0001)                 1.709574999026266E+05,      /* I =159 */
(PID.TID 0000.0001)                 1.391343389937106E+05,      /* I =160 */
(PID.TID 0000.0001)                 1.114203141013064E+05,      /* I =161 */
(PID.TID 0000.0001)                 1.391343389937106E+05,      /* I =162 */
(PID.TID 0000.0001)                 1.709574999026266E+05,      /* I =163 */
(PID.TID 0000.0001)                 1.946503699269892E+05,      /* I =164 */
(PID.TID 0000.0001)                 2.135964483342134E+05,      /* I =165 */
(PID.TID 0000.0001)                 2.294195678257306E+05,      /* I =166 */
(PID.TID 0000.0001)                 2.429464709770498E+05,      /* I =167 */
(PID.TID 0000.0001)                 2.546408290696998E+05,      /* I =168 */
(PID.TID 0000.0001)                 2.647791839299727E+05,      /* I =169 */
(PID.TID 0000.0001)                 2.735321911346108E+05,      /* I =170 */
(PID.TID 0000.0001)                 2.810065951609633E+05,      /* I =171 */
(PID.TID 0000.0001)                 2.872689479506990E+05,      /* I =172 */
(PID.TID 0000.0001)                 2.923599955312932E+05,      /* I =173 */
(PID.TID 0000.0001)                 2.963038832565530E+05,      /* I =174 */
(PID.TID 0000.0001)                 2.991142470004740E+05,      /* I =175 */
(PID.TID 0000.0001)                 3.007982711627968E+05,      /* I =176 */
(PID.TID 0000.0001)                 3.013593857228136E+05,      /* I =177 */
(PID.TID 0000.0001)                 3.007982711627968E+05,      /* I =178 */
(PID.TID 0000.0001)                 2.991142470004740E+05,      /* I =179 */
(PID.TID 0000.0001)                 2.963038832565530E+05,      /* I =180 */
(PID.TID 0000.0001)                 2.923599955312932E+05,      /* I =181 */
(PID.TID 0000.0001)                 2.872689479506990E+05,      /* I =182 */
(PID.TID 0000.0001)                 2.810065951609633E+05,      /* I =183 */
(PID.TID 0000.0001)                 2.735321911346108E+05,      /* I =184 */
(PID.TID 0000.0001)                 2.647791839299727E+05,      /* I =185 */
(PID.TID 0000.0001)                 2.546408290696998E+05,      /* I =186 */
(PID.TID 0000.0001)                 2.429464709770498E+05,      /* I =187 */
(PID.TID 0000.0001)                 2.294195678257306E+05,      /* I =188 */
(PID.TID 0000.0001)                 2.135964483342134E+05,      /* I =189 */
(PID.TID 0000.0001)                 1.946503699269892E+05,      /* I =190 */
(PID.TID 0000.0001)                 1.709574999026266E+05,      /* I =191 */
(PID.TID 0000.0001)                 1.391343389937106E+05       /* I =192 */
(PID.TID 0000.0001)     ;
(PID.TID 0000.0001) dxC =  /* dxC(1,:,1,:) ( m - cartesian, degrees - spherical ) */
(PID.TID 0000.0001)                 1.114203141013064E+05,      /* J =  1 */
(PID.TID 0000.0001)                 1.549545757850771E+05,      /* J =  2 */
(PID.TID 0000.0001)                 1.829777599966776E+05,      /* J =  3 */
(PID.TID 0000.0001)                 2.042717761866506E+05,      /* J =  4 */
(PID.TID 0000.0001)                 2.216367828252819E+05,      /* J =  5 */
(PID.TID 0000.0001)                 2.363029564123586E+05,      /* J =  6 */
(PID.TID 0000.0001)                 2.489113743322025E+05,      /* J =  7 */
(PID.TID 0000.0001)                 2.598293319150326E+05,      /* J =  8 */
(PID.TID 0000.0001)                 2.692787333338535E+05,      /* J =  9 */
(PID.TID 0000.0001)                 2.773972106720365E+05,      /* J = 10 */
(PID.TID 0000.0001)                 2.842706922224557E+05,      /* J = 11 */
(PID.TID 0000.0001)                 2.899523122489403E+05,      /* J = 12 */
(PID.TID 0000.0001)                 2.944741346384699E+05,      /* J = 13 */
(PID.TID 0000.0001)                 2.978547649292580E+05,      /* J = 14 */
(PID.TID 0000.0001)                 3.001044073506459E+05,      /* J = 15 */
(PID.TID 0000.0001)     2 @  3.012281885409289E+05,             /* J = 16: 17 */
(PID.TID 0000.0001)                 3.001044073506459E+05,      /* J = 18 */
(PID.TID 0000.0001)                 2.978547649292580E+05,      /* J = 19 */
(PID.TID 0000.0001)                 2.944741346384699E+05,      /* J = 20 */
(PID.TID 0000.0001)                 2.899523122489403E+05,      /* J = 21 */
(PID.TID 0000.0001)                 2.842706922224557E+05,      /* J = 22 */
(PID.TID 0000.0001)                 2.773972106720365E+05,      /* J = 23 */
(PID.TID 0000.0001)                 2.692787333338535E+05,      /* J = 24 */
(PID.TID 0000.0001)                 2.598293319150326E+05,      /* J = 25 */
(PID.TID 0000.0001)                 2.489113743322025E+05,      /* J = 26 */
(PID.TID 0000.0001)                 2.363029564123586E+05,      /* J = 27 */
(PID.TID 0000.0001)                 2.216367828252819E+05,      /* J = 28 */
(PID.TID 0000.0001)                 2.042717761866506E+05,      /* J = 29 */
(PID.TID 0000.0001)                 1.829777599966776E+05,      /* J = 30 */
(PID.TID 0000.0001)                 1.549545757850771E+05,      /* J = 31 */
(PID.TID 0000.0001)                 1.114203141013064E+05       /* J = 32 */
(PID.TID 0000.0001)     ;
(PID.TID 0000.0001) dyC =  /* dyC(:,1,:,1) ( m - cartesian, degrees - spherical ) */
(PID.TID 0000.0001)                 1.114203141013064E+05,      /* I =  1 */
(PID.TID 0000.0001)                 1.549545757850771E+05,      /* I =  2 */
(PID.TID 0000.0001)                 1.829777599966776E+05,      /* I =  3 */
(PID.TID 0000.0001)                 2.042717761866506E+05,      /* I =  4 */
(PID.TID 0000.0001)                 2.216367828252819E+05,      /* I =  5 */
(PID.TID 0000.0001)                 2.363029564123586E+05,      /* I =  6 */
(PID.TID 0000.0001)                 2.489113743322025E+05,      /* I =  7 */
(PID.TID 0000.0001)                 2.598293319150326E+05,      /* I =  8 */
(PID.TID 0000.0001)                 2.692787333338535E+05,      /* I =  9 */
(PID.TID 0000.0001)                 2.773972106720365E+05,      /* I = 10 */
(PID.TID 0000.0001)                 2.842706922224557E+05,      /* I = 11 */
(PID.TID 0000.0001)                 2.899523122489403E+05,      /* I = 12 */
(PID.TID 0000.0001)                 2.944741346384699E+05,      /* I = 13 */
(PID.TID 0000.0001)                 2.978547649292580E+05,      /* I = 14 */
(PID.TID 0000.0001)                 3.001044073506459E+05,      /* I = 15 */
(PID.TID 0000.0001)     2 @  3.012281885409289E+05,             /* I = 16: 17 */
(PID.TID 0000.0001)                 3.001044073506459E+05,      /* I = 18 */
(PID.TID 0000.0001)                 2.978547649292580E+05,      /* I = 19 */
(PID.TID 0000.0001)                 2.944741346384699E+05,      /* I = 20 */
(PID.TID 0000.0001)                 2.899523122489403E+05,      /* I = 21 */
(PID.TID 0000.0001)                 2.842706922224557E+05,      /* I = 22 */
(PID.TID 0000.0001)                 2.773972106720365E+05,      /* I = 23 */
(PID.TID 0000.0001)                 2.692787333338535E+05,      /* I = 24 */
(PID.TID 0000.0001)                 2.598293319150326E+05,      /* I = 25 */
(PID.TID 0000.0001)                 2.489113743322025E+05,      /* I = 26 */
(PID.TID 0000.0001)                 2.363029564123586E+05,      /* I = 27 */
(PID.TID 0000.0001)                 2.216367828252819E+05,      /* I = 28 */
(PID.TID 0000.0001)                 2.042717761866506E+05,      /* I = 29 */
(PID.TID 0000.0001)                 1.829777599966776E+05,      /* I = 30 */
(PID.TID 0000.0001)                 1.549545757850771E+05,      /* I = 31 */
(PID.TID 0000.0001)     2 @  1.114203141013064E+05,             /* I = 32: 33 */
(PID.TID 0000.0001)                 1.549545757850771E+05,      /* I = 34 */
(PID.TID 0000.0001)                 1.829777599966776E+05,      /* I = 35 */
(PID.TID 0000.0001)                 2.042717761866506E+05,      /* I = 36 */
(PID.TID 0000.0001)                 2.216367828252819E+05,      /* I = 37 */
(PID.TID 0000.0001)                 2.363029564123586E+05,      /* I = 38 */
(PID.TID 0000.0001)                 2.489113743322025E+05,      /* I = 39 */
(PID.TID 0000.0001)                 2.598293319150326E+05,      /* I = 40 */
(PID.TID 0000.0001)                 2.692787333338535E+05,      /* I = 41 */
(PID.TID 0000.0001)                 2.773972106720365E+05,      /* I = 42 */
(PID.TID 0000.0001)                 2.842706922224557E+05,      /* I = 43 */
(PID.TID 0000.0001)                 2.899523122489403E+05,      /* I = 44 */
(PID.TID 0000.0001)                 2.944741346384699E+05,      /* I = 45 */
(PID.TID 0000.0001)                 2.978547649292580E+05,      /* I = 46 */
(PID.TID 0000.0001)                 3.001044073506459E+05,      /* I = 47 */
(PID.TID 0000.0001)     2 @  3.012281885409289E+05,             /* I = 48: 49 */
(PID.TID 0000.0001)                 3.001044073506459E+05,      /* I = 50 */
(PID.TID 0000.0001)                 2.978547649292580E+05,      /* I = 51 */
(PID.TID 0000.0001)                 2.944741346384699E+05,      /* I = 52 */
(PID.TID 0000.0001)                 2.899523122489403E+05,      /* I = 53 */
(PID.TID 0000.0001)                 2.842706922224557E+05,      /* I = 54 */
(PID.TID 0000.0001)                 2.773972106720365E+05,      /* I = 55 */
(PID.TID 0000.0001)                 2.692787333338535E+05,      /* I = 56 */
(PID.TID 0000.0001)                 2.598293319150326E+05,      /* I = 57 */
(PID.TID 0000.0001)                 2.489113743322025E+05,      /* I = 58 */
(PID.TID 0000.0001)                 2.363029564123586E+05,      /* I = 59 */
(PID.TID 0000.0001)                 2.216367828252819E+05,      /* I = 60 */
(PID.TID 0000.0001)                 2.042717761866506E+05,      /* I = 61 */
(PID.TID 0000.0001)                 1.829777599966776E+05,      /* I = 62 */
(PID.TID 0000.0001)                 1.549545757850771E+05,      /* I = 63 */
(PID.TID 0000.0001)     2 @  1.114203141013064E+05,             /* I = 64: 65 */
(PID.TID 0000.0001)                 1.549545757850771E+05,      /* I = 66 */
(PID.TID 0000.0001)                 1.829777599966776E+05,      /* I = 67 */
(PID.TID 0000.0001)                 2.042717761866506E+05,      /* I = 68 */
(PID.TID 0000.0001)                 2.216367828252819E+05,      /* I = 69 */
(PID.TID 0000.0001)                 2.363029564123586E+05,      /* I = 70 */
(PID.TID 0000.0001)                 2.489113743322025E+05,      /* I = 71 */
(PID.TID 0000.0001)                 2.598293319150326E+05,      /* I = 72 */
(PID.TID 0000.0001)                 2.692787333338535E+05,      /* I = 73 */
(PID.TID 0000.0001)                 2.773972106720365E+05,      /* I = 74 */
(PID.TID 0000.0001)                 2.842706922224557E+05,      /* I = 75 */
(PID.TID 0000.0001)                 2.899523122489403E+05,      /* I = 76 */
(PID.TID 0000.0001)                 2.944741346384699E+05,      /* I = 77 */
(PID.TID 0000.0001)                 2.978547649292580E+05,      /* I = 78 */
(PID.TID 0000.0001)                 3.001044073506459E+05,      /* I = 79 */
(PID.TID 0000.0001)     2 @  3.012281885409289E+05,             /* I = 80: 81 */
(PID.TID 0000.0001)                 3.001044073506459E+05,      /* I = 82 */
(PID.TID 0000.0001)                 2.978547649292580E+05,      /* I = 83 */
(PID.TID 0000.0001)                 2.944741346384699E+05,      /* I = 84 */
(PID.TID 0000.0001)                 2.899523122489403E+05,      /* I = 85 */
(PID.TID 0000.0001)                 2.842706922224557E+05,      /* I = 86 */
(PID.TID 0000.0001)                 2.773972106720365E+05,      /* I = 87 */
(PID.TID 0000.0001)                 2.692787333338535E+05,      /* I = 88 */
(PID.TID 0000.0001)                 2.598293319150326E+05,      /* I = 89 */
(PID.TID 0000.0001)                 2.489113743322025E+05,      /* I = 90 */
(PID.TID 0000.0001)                 2.363029564123586E+05,      /* I = 91 */
(PID.TID 0000.0001)                 2.216367828252819E+05,      /* I = 92 */
(PID.TID 0000.0001)                 2.042717761866506E+05,      /* I = 93 */
(PID.TID 0000.0001)                 1.829777599966776E+05,      /* I = 94 */
(PID.TID 0000.0001)                 1.549545757850771E+05,      /* I = 95 */
(PID.TID 0000.0001)     2 @  1.114203141013064E+05,             /* I = 96: 97 */
(PID.TID 0000.0001)                 1.549545757850771E+05,      /* I = 98 */
(PID.TID 0000.0001)                 1.829777599966776E+05,      /* I = 99 */
(PID.TID 0000.0001)                 2.042717761866506E+05,      /* I =100 */
(PID.TID 0000.0001)                 2.216367828252819E+05,      /* I =101 */
(PID.TID 0000.0001)                 2.363029564123586E+05,      /* I =102 */
(PID.TID 0000.0001)                 2.489113743322025E+05,      /* I =103 */
(PID.TID 0000.0001)                 2.598293319150326E+05,      /* I =104 */
(PID.TID 0000.0001)                 2.692787333338535E+05,      /* I =105 */
(PID.TID 0000.0001)                 2.773972106720365E+05,      /* I =106 */
(PID.TID 0000.0001)                 2.842706922224557E+05,      /* I =107 */
(PID.TID 0000.0001)                 2.899523122489403E+05,      /* I =108 */
(PID.TID 0000.0001)                 2.944741346384699E+05,      /* I =109 */
(PID.TID 0000.0001)                 2.978547649292580E+05,      /* I =110 */
(PID.TID 0000.0001)                 3.001044073506459E+05,      /* I =111 */
(PID.TID 0000.0001)     2 @  3.012281885409289E+05,             /* I =112:113 */
(PID.TID 0000.0001)                 3.001044073506459E+05,      /* I =114 */
(PID.TID 0000.0001)                 2.978547649292580E+05,      /* I =115 */
(PID.TID 0000.0001)                 2.944741346384699E+05,      /* I =116 */
(PID.TID 0000.0001)                 2.899523122489403E+05,      /* I =117 */
(PID.TID 0000.0001)                 2.842706922224557E+05,      /* I =118 */
(PID.TID 0000.0001)                 2.773972106720365E+05,      /* I =119 */
(PID.TID 0000.0001)                 2.692787333338535E+05,      /* I =120 */
(PID.TID 0000.0001)                 2.598293319150326E+05,      /* I =121 */
(PID.TID 0000.0001)                 2.489113743322025E+05,      /* I =122 */
(PID.TID 0000.0001)                 2.363029564123586E+05,      /* I =123 */
(PID.TID 0000.0001)                 2.216367828252819E+05,      /* I =124 */
(PID.TID 0000.0001)                 2.042717761866506E+05,      /* I =125 */
(PID.TID 0000.0001)                 1.829777599966776E+05,      /* I =126 */
(PID.TID 0000.0001)                 1.549545757850771E+05,      /* I =127 */
(PID.TID 0000.0001)     2 @  1.114203141013064E+05,             /* I =128:129 */
(PID.TID 0000.0001)                 1.549545757850771E+05,      /* I =130 */
(PID.TID 0000.0001)                 1.829777599966776E+05,      /* I =131 */
(PID.TID 0000.0001)                 2.042717761866506E+05,      /* I =132 */
(PID.TID 0000.0001)                 2.216367828252819E+05,      /* I =133 */
(PID.TID 0000.0001)                 2.363029564123586E+05,      /* I =134 */
(PID.TID 0000.0001)                 2.489113743322025E+05,      /* I =135 */
(PID.TID 0000.0001)                 2.598293319150326E+05,      /* I =136 */
(PID.TID 0000.0001)                 2.692787333338535E+05,      /* I =137 */
(PID.TID 0000.0001)                 2.773972106720365E+05,      /* I =138 */
(PID.TID 0000.0001)                 2.842706922224557E+05,      /* I =139 */
(PID.TID 0000.0001)                 2.899523122489403E+05,      /* I =140 */
(PID.TID 0000.0001)                 2.944741346384699E+05,      /* I =141 */
(PID.TID 0000.0001)                 2.978547649292580E+05,      /* I =142 */
(PID.TID 0000.0001)                 3.001044073506459E+05,      /* I =143 */
(PID.TID 0000.0001)     2 @  3.012281885409289E+05,             /* I =144:145 */
(PID.TID 0000.0001)                 3.001044073506459E+05,      /* I =146 */
(PID.TID 0000.0001)                 2.978547649292580E+05,      /* I =147 */
(PID.TID 0000.0001)                 2.944741346384699E+05,      /* I =148 */
(PID.TID 0000.0001)                 2.899523122489403E+05,      /* I =149 */
(PID.TID 0000.0001)                 2.842706922224557E+05,      /* I =150 */
(PID.TID 0000.0001)                 2.773972106720365E+05,      /* I =151 */
(PID.TID 0000.0001)                 2.692787333338535E+05,      /* I =152 */
(PID.TID 0000.0001)                 2.598293319150326E+05,      /* I =153 */
(PID.TID 0000.0001)                 2.489113743322025E+05,      /* I =154 */
(PID.TID 0000.0001)                 2.363029564123586E+05,      /* I =155 */
(PID.TID 0000.0001)                 2.216367828252819E+05,      /* I =156 */
(PID.TID 0000.0001)                 2.042717761866506E+05,      /* I =157 */
(PID.TID 0000.0001)                 1.829777599966776E+05,      /* I =158 */
(PID.TID 0000.0001)                 1.549545757850771E+05,      /* I =159 */
(PID.TID 0000.0001)     2 @  1.114203141013064E+05,             /* I =160:161 */
(PID.TID 0000.0001)                 1.549545757850771E+05,      /* I =162 */
(PID.TID 0000.0001)                 1.829777599966776E+05,      /* I =163 */
(PID.TID 0000.0001)                 2.042717761866506E+05,      /* I =164 */
(PID.TID 0000.0001)                 2.216367828252819E+05,      /* I =165 */
(PID.TID 0000.0001)                 2.363029564123586E+05,      /* I =166 */
(PID.TID 0000.0001)                 2.489113743322025E+05,      /* I =167 */
(PID.TID 0000.0001)                 2.598293319150326E+05,      /* I =168 */
(PID.TID 0000.0001)                 2.692787333338535E+05,      /* I =169 */
(PID.TID 0000.0001)                 2.773972106720365E+05,      /* I =170 */
(PID.TID 0000.0001)                 2.842706922224557E+05,      /* I =171 */
(PID.TID 0000.0001)                 2.899523122489403E+05,      /* I =172 */
(PID.TID 0000.0001)                 2.944741346384699E+05,      /* I =173 */
(PID.TID 0000.0001)                 2.978547649292580E+05,      /* I =174 */
(PID.TID 0000.0001)                 3.001044073506459E+05,      /* I =175 */
(PID.TID 0000.0001)     2 @  3.012281885409289E+05,             /* I =176:177 */
(PID.TID 0000.0001)                 3.001044073506459E+05,      /* I =178 */
(PID.TID 0000.0001)                 2.978547649292580E+05,      /* I =179 */
(PID.TID 0000.0001)                 2.944741346384699E+05,      /* I =180 */
(PID.TID 0000.0001)                 2.899523122489403E+05,      /* I =181 */
(PID.TID 0000.0001)                 2.842706922224557E+05,      /* I =182 */
(PID.TID 0000.0001)                 2.773972106720365E+05,      /* I =183 */
(PID.TID 0000.0001)                 2.692787333338535E+05,      /* I =184 */
(PID.TID 0000.0001)                 2.598293319150326E+05,      /* I =185 */
(PID.TID 0000.0001)                 2.489113743322025E+05,      /* I =186 */
(PID.TID 0000.0001)                 2.363029564123586E+05,      /* I =187 */
(PID.TID 0000.0001)                 2.216367828252819E+05,      /* I =188 */
(PID.TID 0000.0001)                 2.042717761866506E+05,      /* I =189 */
(PID.TID 0000.0001)                 1.829777599966776E+05,      /* I =190 */
(PID.TID 0000.0001)                 1.549545757850771E+05,      /* I =191 */
(PID.TID 0000.0001)                 1.114203141013064E+05       /* I =192 */
(PID.TID 0000.0001)     ;
(PID.TID 0000.0001) dyC =  /* dyC(1,:,1,:) ( m - cartesian, degrees - spherical ) */
(PID.TID 0000.0001)                 1.114203141013064E+05,      /* J =  1 */
(PID.TID 0000.0001)                 1.391343389937106E+05,      /* J =  2 */
(PID.TID 0000.0001)                 1.709574999026266E+05,      /* J =  3 */
(PID.TID 0000.0001)                 1.946503699269892E+05,      /* J =  4 */
(PID.TID 0000.0001)                 2.135964483342134E+05,      /* J =  5 */
(PID.TID 0000.0001)                 2.294195678257306E+05,      /* J =  6 */
(PID.TID 0000.0001)                 2.429464709770498E+05,      /* J =  7 */
(PID.TID 0000.0001)                 2.546408290696998E+05,      /* J =  8 */
(PID.TID 0000.0001)                 2.647791839299727E+05,      /* J =  9 */
(PID.TID 0000.0001)                 2.735321911346108E+05,      /* J = 10 */
(PID.TID 0000.0001)                 2.810065951609633E+05,      /* J = 11 */
(PID.TID 0000.0001)                 2.872689479506990E+05,      /* J = 12 */
(PID.TID 0000.0001)                 2.923599955312932E+05,      /* J = 13 */
(PID.TID 0000.0001)                 2.963038832565530E+05,      /* J = 14 */
(PID.TID 0000.0001)                 2.991142470004740E+05,      /* J = 15 */
(PID.TID 0000.0001)                 3.007982711627968E+05,      /* J = 16 */
(PID.TID 0000.0001)                 3.013593857228136E+05,      /* J = 17 */
(PID.TID 0000.0001)                 3.007982711627968E+05,      /* J = 18 */
(PID.TID 0000.0001)                 2.991142470004740E+05,      /* J = 19 */
(PID.TID 0000.0001)                 2.963038832565530E+05,      /* J = 20 */
(PID.TID 0000.0001)                 2.923599955312932E+05,      /* J = 21 */
(PID.TID 0000.0001)                 2.872689479506990E+05,      /* J = 22 */
(PID.TID 0000.0001)                 2.810065951609633E+05,      /* J = 23 */
(PID.TID 0000.0001)                 2.735321911346108E+05,      /* J = 24 */
(PID.TID 0000.0001)                 2.647791839299727E+05,      /* J = 25 */
(PID.TID 0000.0001)                 2.546408290696998E+05,      /* J = 26 */
(PID.TID 0000.0001)                 2.429464709770498E+05,      /* J = 27 */
(PID.TID 0000.0001)                 2.294195678257306E+05,      /* J = 28 */
(PID.TID 0000.0001)                 2.135964483342134E+05,      /* J = 29 */
(PID.TID 0000.0001)                 1.946503699269892E+05,      /* J = 30 */
(PID.TID 0000.0001)                 1.709574999026266E+05,      /* J = 31 */
(PID.TID 0000.0001)                 1.391343389937106E+05       /* J = 32 */
(PID.TID 0000.0001)     ;
(PID.TID 0000.0001) dxV =  /* dxV(:,1,:,1) ( m - cartesian, degrees - spherical ) */
(PID.TID 0000.0001)                 8.015229982413632E+04,      /* I =  1 */
(PID.TID 0000.0001)                 1.333130744933864E+05,      /* I =  2 */
(PID.TID 0000.0001)                 1.691744868129062E+05,      /* I =  3 */
(PID.TID 0000.0001)                 1.937548202849060E+05,      /* I =  4 */
(PID.TID 0000.0001)                 2.130490056267208E+05,      /* I =  5 */
(PID.TID 0000.0001)                 2.290479919481738E+05,      /* I =  6 */
(PID.TID 0000.0001)                 2.426774358027003E+05,      /* I =  7 */
(PID.TID 0000.0001)                 2.544372984215561E+05,      /* I =  8 */
(PID.TID 0000.0001)                 2.646201463834826E+05,      /* I =  9 */
(PID.TID 0000.0001)                 2.734046499619031E+05,      /* I = 10 */
(PID.TID 0000.0001)                 2.809019351693761E+05,      /* I = 11 */
(PID.TID 0000.0001)                 2.871811105274442E+05,      /* I = 12 */
(PID.TID 0000.0001)                 2.922844849381675E+05,      /* I = 13 */
(PID.TID 0000.0001)                 2.962371870847826E+05,      /* I = 14 */
(PID.TID 0000.0001)                 2.990534755671296E+05,      /* I = 15 */
(PID.TID 0000.0001)                 3.007409169495504E+05,      /* I = 16 */
(PID.TID 0000.0001)                 3.013031486919771E+05,      /* I = 17 */
(PID.TID 0000.0001)                 3.007409169495504E+05,      /* I = 18 */
(PID.TID 0000.0001)                 2.990534755671296E+05,      /* I = 19 */
(PID.TID 0000.0001)                 2.962371870847826E+05,      /* I = 20 */
(PID.TID 0000.0001)                 2.922844849381675E+05,      /* I = 21 */
(PID.TID 0000.0001)                 2.871811105274442E+05,      /* I = 22 */
(PID.TID 0000.0001)                 2.809019351693761E+05,      /* I = 23 */
(PID.TID 0000.0001)                 2.734046499619031E+05,      /* I = 24 */
(PID.TID 0000.0001)                 2.646201463834826E+05,      /* I = 25 */
(PID.TID 0000.0001)                 2.544372984215561E+05,      /* I = 26 */
(PID.TID 0000.0001)                 2.426774358027003E+05,      /* I = 27 */
(PID.TID 0000.0001)                 2.290479919481738E+05,      /* I = 28 */
(PID.TID 0000.0001)                 2.130490056267208E+05,      /* I = 29 */
(PID.TID 0000.0001)                 1.937548202849060E+05,      /* I = 30 */
(PID.TID 0000.0001)                 1.691744868129062E+05,      /* I = 31 */
(PID.TID 0000.0001)                 1.333130744933864E+05,      /* I = 32 */
(PID.TID 0000.0001)                 8.015229982413632E+04,      /* I = 33 */
(PID.TID 0000.0001)                 1.333130744933864E+05,      /* I = 34 */
(PID.TID 0000.0001)                 1.691744868129062E+05,      /* I = 35 */
(PID.TID 0000.0001)                 1.937548202849060E+05,      /* I = 36 */
(PID.TID 0000.0001)                 2.130490056267208E+05,      /* I = 37 */
(PID.TID 0000.0001)                 2.290479919481738E+05,      /* I = 38 */
(PID.TID 0000.0001)                 2.426774358027003E+05,      /* I = 39 */
(PID.TID 0000.0001)                 2.544372984215561E+05,      /* I = 40 */
(PID.TID 0000.0001)                 2.646201463834826E+05,      /* I = 41 */
(PID.TID 0000.0001)                 2.734046499619031E+05,      /* I = 42 */
(PID.TID 0000.0001)                 2.809019351693761E+05,      /* I = 43 */
(PID.TID 0000.0001)                 2.871811105274442E+05,      /* I = 44 */
(PID.TID 0000.0001)                 2.922844849381675E+05,      /* I = 45 */
(PID.TID 0000.0001)                 2.962371870847826E+05,      /* I = 46 */
(PID.TID 0000.0001)                 2.990534755671296E+05,      /* I = 47 */
(PID.TID 0000.0001)                 3.007409169495504E+05,      /* I = 48 */
(PID.TID 0000.0001)                 3.013031486919771E+05,      /* I = 49 */
(PID.TID 0000.0001)                 3.007409169495504E+05,      /* I = 50 */
(PID.TID 0000.0001)                 2.990534755671296E+05,      /* I = 51 */
(PID.TID 0000.0001)                 2.962371870847826E+05,      /* I = 52 */
(PID.TID 0000.0001)                 2.922844849381675E+05,      /* I = 53 */
(PID.TID 0000.0001)                 2.871811105274442E+05,      /* I = 54 */
(PID.TID 0000.0001)                 2.809019351693761E+05,      /* I = 55 */
(PID.TID 0000.0001)                 2.734046499619031E+05,      /* I = 56 */
(PID.TID 0000.0001)                 2.646201463834826E+05,      /* I = 57 */
(PID.TID 0000.0001)                 2.544372984215561E+05,      /* I = 58 */
(PID.TID 0000.0001)                 2.426774358027003E+05,      /* I = 59 */
(PID.TID 0000.0001)                 2.290479919481738E+05,      /* I = 60 */
(PID.TID 0000.0001)                 2.130490056267208E+05,      /* I = 61 */
(PID.TID 0000.0001)                 1.937548202849060E+05,      /* I = 62 */
(PID.TID 0000.0001)                 1.691744868129062E+05,      /* I = 63 */
(PID.TID 0000.0001)                 1.333130744933864E+05,      /* I = 64 */
(PID.TID 0000.0001)                 8.015229982413632E+04,      /* I = 65 */
(PID.TID 0000.0001)                 1.333130744933864E+05,      /* I = 66 */
(PID.TID 0000.0001)                 1.691744868129062E+05,      /* I = 67 */
(PID.TID 0000.0001)                 1.937548202849060E+05,      /* I = 68 */
(PID.TID 0000.0001)                 2.130490056267208E+05,      /* I = 69 */
(PID.TID 0000.0001)                 2.290479919481738E+05,      /* I = 70 */
(PID.TID 0000.0001)                 2.426774358027003E+05,      /* I = 71 */
(PID.TID 0000.0001)                 2.544372984215561E+05,      /* I = 72 */
(PID.TID 0000.0001)                 2.646201463834826E+05,      /* I = 73 */
(PID.TID 0000.0001)                 2.734046499619031E+05,      /* I = 74 */
(PID.TID 0000.0001)                 2.809019351693761E+05,      /* I = 75 */
(PID.TID 0000.0001)                 2.871811105274442E+05,      /* I = 76 */
(PID.TID 0000.0001)                 2.922844849381675E+05,      /* I = 77 */
(PID.TID 0000.0001)                 2.962371870847826E+05,      /* I = 78 */
(PID.TID 0000.0001)                 2.990534755671296E+05,      /* I = 79 */
(PID.TID 0000.0001)                 3.007409169495504E+05,      /* I = 80 */
(PID.TID 0000.0001)                 3.013031486919771E+05,      /* I = 81 */
(PID.TID 0000.0001)                 3.007409169495504E+05,      /* I = 82 */
(PID.TID 0000.0001)                 2.990534755671296E+05,      /* I = 83 */
(PID.TID 0000.0001)                 2.962371870847826E+05,      /* I = 84 */
(PID.TID 0000.0001)                 2.922844849381675E+05,      /* I = 85 */
(PID.TID 0000.0001)                 2.871811105274442E+05,      /* I = 86 */
(PID.TID 0000.0001)                 2.809019351693761E+05,      /* I = 87 */
(PID.TID 0000.0001)                 2.734046499619031E+05,      /* I = 88 */
(PID.TID 0000.0001)                 2.646201463834826E+05,      /* I = 89 */
(PID.TID 0000.0001)                 2.544372984215561E+05,      /* I = 90 */
(PID.TID 0000.0001)                 2.426774358027003E+05,      /* I = 91 */
(PID.TID 0000.0001)                 2.290479919481738E+05,      /* I = 92 */
(PID.TID 0000.0001)                 2.130490056267208E+05,      /* I = 93 */
(PID.TID 0000.0001)                 1.937548202849060E+05,      /* I = 94 */
(PID.TID 0000.0001)                 1.691744868129062E+05,      /* I = 95 */
(PID.TID 0000.0001)                 1.333130744933864E+05,      /* I = 96 */
(PID.TID 0000.0001)                 8.015229982413632E+04,      /* I = 97 */
(PID.TID 0000.0001)                 1.333130744933864E+05,      /* I = 98 */
(PID.TID 0000.0001)                 1.691744868129062E+05,      /* I = 99 */
(PID.TID 0000.0001)                 1.937548202849060E+05,      /* I =100 */
(PID.TID 0000.0001)                 2.130490056267208E+05,      /* I =101 */
(PID.TID 0000.0001)                 2.290479919481738E+05,      /* I =102 */
(PID.TID 0000.0001)                 2.426774358027003E+05,      /* I =103 */
(PID.TID 0000.0001)                 2.544372984215561E+05,      /* I =104 */
(PID.TID 0000.0001)                 2.646201463834826E+05,      /* I =105 */
(PID.TID 0000.0001)                 2.734046499619031E+05,      /* I =106 */
(PID.TID 0000.0001)                 2.809019351693761E+05,      /* I =107 */
(PID.TID 0000.0001)                 2.871811105274442E+05,      /* I =108 */
(PID.TID 0000.0001)                 2.922844849381675E+05,      /* I =109 */
(PID.TID 0000.0001)                 2.962371870847826E+05,      /* I =110 */
(PID.TID 0000.0001)                 2.990534755671296E+05,      /* I =111 */
(PID.TID 0000.0001)                 3.007409169495504E+05,      /* I =112 */
(PID.TID 0000.0001)                 3.013031486919771E+05,      /* I =113 */
(PID.TID 0000.0001)                 3.007409169495504E+05,      /* I =114 */
(PID.TID 0000.0001)                 2.990534755671296E+05,      /* I =115 */
(PID.TID 0000.0001)                 2.962371870847826E+05,      /* I =116 */
(PID.TID 0000.0001)                 2.922844849381675E+05,      /* I =117 */
(PID.TID 0000.0001)                 2.871811105274442E+05,      /* I =118 */
(PID.TID 0000.0001)                 2.809019351693761E+05,      /* I =119 */
(PID.TID 0000.0001)                 2.734046499619031E+05,      /* I =120 */
(PID.TID 0000.0001)                 2.646201463834826E+05,      /* I =121 */
(PID.TID 0000.0001)                 2.544372984215561E+05,      /* I =122 */
(PID.TID 0000.0001)                 2.426774358027003E+05,      /* I =123 */
(PID.TID 0000.0001)                 2.290479919481738E+05,      /* I =124 */
(PID.TID 0000.0001)                 2.130490056267208E+05,      /* I =125 */
(PID.TID 0000.0001)                 1.937548202849060E+05,      /* I =126 */
(PID.TID 0000.0001)                 1.691744868129062E+05,      /* I =127 */
(PID.TID 0000.0001)                 1.333130744933864E+05,      /* I =128 */
(PID.TID 0000.0001)                 8.015229982413632E+04,      /* I =129 */
(PID.TID 0000.0001)                 1.333130744933864E+05,      /* I =130 */
(PID.TID 0000.0001)                 1.691744868129062E+05,      /* I =131 */
(PID.TID 0000.0001)                 1.937548202849060E+05,      /* I =132 */
(PID.TID 0000.0001)                 2.130490056267208E+05,      /* I =133 */
(PID.TID 0000.0001)                 2.290479919481738E+05,      /* I =134 */
(PID.TID 0000.0001)                 2.426774358027003E+05,      /* I =135 */
(PID.TID 0000.0001)                 2.544372984215561E+05,      /* I =136 */
(PID.TID 0000.0001)                 2.646201463834826E+05,      /* I =137 */
(PID.TID 0000.0001)                 2.734046499619031E+05,      /* I =138 */
(PID.TID 0000.0001)                 2.809019351693761E+05,      /* I =139 */
(PID.TID 0000.0001)                 2.871811105274442E+05,      /* I =140 */
(PID.TID 0000.0001)                 2.922844849381675E+05,      /* I =141 */
(PID.TID 0000.0001)                 2.962371870847826E+05,      /* I =142 */
(PID.TID 0000.0001)                 2.990534755671296E+05,      /* I =143 */
(PID.TID 0000.0001)                 3.007409169495504E+05,      /* I =144 */
(PID.TID 0000.0001)                 3.013031486919771E+05,      /* I =145 */
(PID.TID 0000.0001)                 3.007409169495504E+05,      /* I =146 */
(PID.TID 0000.0001)                 2.990534755671296E+05,      /* I =147 */
(PID.TID 0000.0001)                 2.962371870847826E+05,      /* I =148 */
(PID.TID 0000.0001)                 2.922844849381675E+05,      /* I =149 */
(PID.TID 0000.0001)                 2.871811105274442E+05,      /* I =150 */
(PID.TID 0000.0001)                 2.809019351693761E+05,      /* I =151 */
(PID.TID 0000.0001)                 2.734046499619031E+05,      /* I =152 */
(PID.TID 0000.0001)                 2.646201463834826E+05,      /* I =153 */
(PID.TID 0000.0001)                 2.544372984215561E+05,      /* I =154 */
(PID.TID 0000.0001)                 2.426774358027003E+05,      /* I =155 */
(PID.TID 0000.0001)                 2.290479919481738E+05,      /* I =156 */
(PID.TID 0000.0001)                 2.130490056267208E+05,      /* I =157 */
(PID.TID 0000.0001)                 1.937548202849060E+05,      /* I =158 */
(PID.TID 0000.0001)                 1.691744868129062E+05,      /* I =159 */
(PID.TID 0000.0001)                 1.333130744933864E+05,      /* I =160 */
(PID.TID 0000.0001)                 8.015229982413632E+04,      /* I =161 */
(PID.TID 0000.0001)                 1.333130744933864E+05,      /* I =162 */
(PID.TID 0000.0001)                 1.691744868129062E+05,      /* I =163 */
(PID.TID 0000.0001)                 1.937548202849060E+05,      /* I =164 */
(PID.TID 0000.0001)                 2.130490056267208E+05,      /* I =165 */
(PID.TID 0000.0001)                 2.290479919481738E+05,      /* I =166 */
(PID.TID 0000.0001)                 2.426774358027003E+05,      /* I =167 */
(PID.TID 0000.0001)                 2.544372984215561E+05,      /* I =168 */
(PID.TID 0000.0001)                 2.646201463834826E+05,      /* I =169 */
(PID.TID 0000.0001)                 2.734046499619031E+05,      /* I =170 */
(PID.TID 0000.0001)                 2.809019351693761E+05,      /* I =171 */
(PID.TID 0000.0001)                 2.871811105274442E+05,      /* I =172 */
(PID.TID 0000.0001)                 2.922844849381675E+05,      /* I =173 */
(PID.TID 0000.0001)                 2.962371870847826E+05,      /* I =174 */
(PID.TID 0000.0001)                 2.990534755671296E+05,      /* I =175 */
(PID.TID 0000.0001)                 3.007409169495504E+05,      /* I =176 */
(PID.TID 0000.0001)                 3.013031486919771E+05,      /* I =177 */
(PID.TID 0000.0001)                 3.007409169495504E+05,      /* I =178 */
(PID.TID 0000.0001)                 2.990534755671296E+05,      /* I =179 */
(PID.TID 0000.0001)                 2.962371870847826E+05,      /* I =180 */
(PID.TID 0000.0001)                 2.922844849381675E+05,      /* I =181 */
(PID.TID 0000.0001)                 2.871811105274442E+05,      /* I =182 */
(PID.TID 0000.0001)                 2.809019351693761E+05,      /* I =183 */
(PID.TID 0000.0001)                 2.734046499619031E+05,      /* I =184 */
(PID.TID 0000.0001)                 2.646201463834826E+05,      /* I =185 */
(PID.TID 0000.0001)                 2.544372984215561E+05,      /* I =186 */
(PID.TID 0000.0001)                 2.426774358027003E+05,      /* I =187 */
(PID.TID 0000.0001)                 2.290479919481738E+05,      /* I =188 */
(PID.TID 0000.0001)                 2.130490056267208E+05,      /* I =189 */
(PID.TID 0000.0001)                 1.937548202849060E+05,      /* I =190 */
(PID.TID 0000.0001)                 1.691744868129062E+05,      /* I =191 */
(PID.TID 0000.0001)                 1.333130744933864E+05       /* I =192 */
(PID.TID 0000.0001)     ;
(PID.TID 0000.0001) dxV =  /* dxV(1,:,1,:) ( m - cartesian, degrees - spherical ) */
(PID.TID 0000.0001)                 8.015229982413632E+04,      /* J =  1 */
(PID.TID 0000.0001)                 1.362652340208229E+05,      /* J =  2 */
(PID.TID 0000.0001)                 1.701080315742101E+05,      /* J =  3 */
(PID.TID 0000.0001)                 1.942331448101592E+05,      /* J =  4 */
(PID.TID 0000.0001)                 2.133486626971531E+05,      /* J =  5 */
(PID.TID 0000.0001)                 2.292584591272880E+05,      /* J =  6 */
(PID.TID 0000.0001)                 2.428369969078989E+05,      /* J =  7 */
(PID.TID 0000.0001)                 2.545652950875683E+05,      /* J =  8 */
(PID.TID 0000.0001)                 2.647274964828301E+05,      /* J =  9 */
(PID.TID 0000.0001)                 2.734980225206389E+05,      /* J = 10 */
(PID.TID 0000.0001)                 2.809856491525217E+05,      /* J = 11 */
(PID.TID 0000.0001)                 2.872580915202295E+05,      /* J = 12 */
(PID.TID 0000.0001)                 2.923567890694162E+05,      /* J = 13 */
(PID.TID 0000.0001)                 2.963063101754721E+05,      /* J = 14 */
(PID.TID 0000.0001)                 2.991205495886625E+05,      /* J = 15 */
(PID.TID 0000.0001)                 3.008068453676764E+05,      /* J = 16 */
(PID.TID 0000.0001)                 3.013686170436881E+05,      /* J = 17 */
(PID.TID 0000.0001)                 3.008068453676764E+05,      /* J = 18 */
(PID.TID 0000.0001)                 2.991205495886625E+05,      /* J = 19 */
(PID.TID 0000.0001)                 2.963063101754721E+05,      /* J = 20 */
(PID.TID 0000.0001)                 2.923567890694162E+05,      /* J = 21 */
(PID.TID 0000.0001)                 2.872580915202295E+05,      /* J = 22 */
(PID.TID 0000.0001)                 2.809856491525217E+05,      /* J = 23 */
(PID.TID 0000.0001)                 2.734980225206389E+05,      /* J = 24 */
(PID.TID 0000.0001)                 2.647274964828301E+05,      /* J = 25 */
(PID.TID 0000.0001)                 2.545652950875683E+05,      /* J = 26 */
(PID.TID 0000.0001)                 2.428369969078989E+05,      /* J = 27 */
(PID.TID 0000.0001)                 2.292584591272880E+05,      /* J = 28 */
(PID.TID 0000.0001)                 2.133486626971531E+05,      /* J = 29 */
(PID.TID 0000.0001)                 1.942331448101592E+05,      /* J = 30 */
(PID.TID 0000.0001)                 1.701080315742101E+05,      /* J = 31 */
(PID.TID 0000.0001)                 1.362652340208229E+05       /* J = 32 */
(PID.TID 0000.0001)     ;
(PID.TID 0000.0001) dyU =  /* dyU(:,1,:,1) ( m - cartesian, degrees - spherical ) */
(PID.TID 0000.0001)                 8.015229982413632E+04,      /* I =  1 */
(PID.TID 0000.0001)                 1.362652340208229E+05,      /* I =  2 */
(PID.TID 0000.0001)                 1.701080315742101E+05,      /* I =  3 */
(PID.TID 0000.0001)                 1.942331448101592E+05,      /* I =  4 */
(PID.TID 0000.0001)                 2.133486626971531E+05,      /* I =  5 */
(PID.TID 0000.0001)                 2.292584591272880E+05,      /* I =  6 */
(PID.TID 0000.0001)                 2.428369969078989E+05,      /* I =  7 */
(PID.TID 0000.0001)                 2.545652950875683E+05,      /* I =  8 */
(PID.TID 0000.0001)                 2.647274964828301E+05,      /* I =  9 */
(PID.TID 0000.0001)                 2.734980225206389E+05,      /* I = 10 */
(PID.TID 0000.0001)                 2.809856491525217E+05,      /* I = 11 */
(PID.TID 0000.0001)                 2.872580915202295E+05,      /* I = 12 */
(PID.TID 0000.0001)                 2.923567890694162E+05,      /* I = 13 */
(PID.TID 0000.0001)                 2.963063101754721E+05,      /* I = 14 */
(PID.TID 0000.0001)                 2.991205495886625E+05,      /* I = 15 */
(PID.TID 0000.0001)                 3.008068453676764E+05,      /* I = 16 */
(PID.TID 0000.0001)                 3.013686170436881E+05,      /* I = 17 */
(PID.TID 0000.0001)                 3.008068453676764E+05,      /* I = 18 */
(PID.TID 0000.0001)                 2.991205495886625E+05,      /* I = 19 */
(PID.TID 0000.0001)                 2.963063101754721E+05,      /* I = 20 */
(PID.TID 0000.0001)                 2.923567890694162E+05,      /* I = 21 */
(PID.TID 0000.0001)                 2.872580915202295E+05,      /* I = 22 */
(PID.TID 0000.0001)                 2.809856491525217E+05,      /* I = 23 */
(PID.TID 0000.0001)                 2.734980225206389E+05,      /* I = 24 */
(PID.TID 0000.0001)                 2.647274964828301E+05,      /* I = 25 */
(PID.TID 0000.0001)                 2.545652950875683E+05,      /* I = 26 */
(PID.TID 0000.0001)                 2.428369969078989E+05,      /* I = 27 */
(PID.TID 0000.0001)                 2.292584591272880E+05,      /* I = 28 */
(PID.TID 0000.0001)                 2.133486626971531E+05,      /* I = 29 */
(PID.TID 0000.0001)                 1.942331448101592E+05,      /* I = 30 */
(PID.TID 0000.0001)                 1.701080315742101E+05,      /* I = 31 */
(PID.TID 0000.0001)                 1.362652340208229E+05,      /* I = 32 */
(PID.TID 0000.0001)                 8.015229982413632E+04,      /* I = 33 */
(PID.TID 0000.0001)                 1.362652340208229E+05,      /* I = 34 */
(PID.TID 0000.0001)                 1.701080315742101E+05,      /* I = 35 */
(PID.TID 0000.0001)                 1.942331448101592E+05,      /* I = 36 */
(PID.TID 0000.0001)                 2.133486626971531E+05,      /* I = 37 */
(PID.TID 0000.0001)                 2.292584591272880E+05,      /* I = 38 */
(PID.TID 0000.0001)                 2.428369969078989E+05,      /* I = 39 */
(PID.TID 0000.0001)                 2.545652950875683E+05,      /* I = 40 */
(PID.TID 0000.0001)                 2.647274964828301E+05,      /* I = 41 */
(PID.TID 0000.0001)                 2.734980225206389E+05,      /* I = 42 */
(PID.TID 0000.0001)                 2.809856491525217E+05,      /* I = 43 */
(PID.TID 0000.0001)                 2.872580915202295E+05,      /* I = 44 */
(PID.TID 0000.0001)                 2.923567890694162E+05,      /* I = 45 */
(PID.TID 0000.0001)                 2.963063101754721E+05,      /* I = 46 */
(PID.TID 0000.0001)                 2.991205495886625E+05,      /* I = 47 */
(PID.TID 0000.0001)                 3.008068453676764E+05,      /* I = 48 */
(PID.TID 0000.0001)                 3.013686170436881E+05,      /* I = 49 */
(PID.TID 0000.0001)                 3.008068453676764E+05,      /* I = 50 */
(PID.TID 0000.0001)                 2.991205495886625E+05,      /* I = 51 */
(PID.TID 0000.0001)                 2.963063101754721E+05,      /* I = 52 */
(PID.TID 0000.0001)                 2.923567890694162E+05,      /* I = 53 */
(PID.TID 0000.0001)                 2.872580915202295E+05,      /* I = 54 */
(PID.TID 0000.0001)                 2.809856491525217E+05,      /* I = 55 */
(PID.TID 0000.0001)                 2.734980225206389E+05,      /* I = 56 */
(PID.TID 0000.0001)                 2.647274964828301E+05,      /* I = 57 */
(PID.TID 0000.0001)                 2.545652950875683E+05,      /* I = 58 */
(PID.TID 0000.0001)                 2.428369969078989E+05,      /* I = 59 */
(PID.TID 0000.0001)                 2.292584591272880E+05,      /* I = 60 */
(PID.TID 0000.0001)                 2.133486626971531E+05,      /* I = 61 */
(PID.TID 0000.0001)                 1.942331448101592E+05,      /* I = 62 */
(PID.TID 0000.0001)                 1.701080315742101E+05,      /* I = 63 */
(PID.TID 0000.0001)                 1.362652340208229E+05,      /* I = 64 */
(PID.TID 0000.0001)                 8.015229982413632E+04,      /* I = 65 */
(PID.TID 0000.0001)                 1.362652340208229E+05,      /* I = 66 */
(PID.TID 0000.0001)                 1.701080315742101E+05,      /* I = 67 */
(PID.TID 0000.0001)                 1.942331448101592E+05,      /* I = 68 */
(PID.TID 0000.0001)                 2.133486626971531E+05,      /* I = 69 */
(PID.TID 0000.0001)                 2.292584591272880E+05,      /* I = 70 */
(PID.TID 0000.0001)                 2.428369969078989E+05,      /* I = 71 */
(PID.TID 0000.0001)                 2.545652950875683E+05,      /* I = 72 */
(PID.TID 0000.0001)                 2.647274964828301E+05,      /* I = 73 */
(PID.TID 0000.0001)                 2.734980225206389E+05,      /* I = 74 */
(PID.TID 0000.0001)                 2.809856491525217E+05,      /* I = 75 */
(PID.TID 0000.0001)                 2.872580915202295E+05,      /* I = 76 */
(PID.TID 0000.0001)                 2.923567890694162E+05,      /* I = 77 */
(PID.TID 0000.0001)                 2.963063101754721E+05,      /* I = 78 */
(PID.TID 0000.0001)                 2.991205495886625E+05,      /* I = 79 */
(PID.TID 0000.0001)                 3.008068453676764E+05,      /* I = 80 */
(PID.TID 0000.0001)                 3.013686170436881E+05,      /* I = 81 */
(PID.TID 0000.0001)                 3.008068453676764E+05,      /* I = 82 */
(PID.TID 0000.0001)                 2.991205495886625E+05,      /* I = 83 */
(PID.TID 0000.0001)                 2.963063101754721E+05,      /* I = 84 */
(PID.TID 0000.0001)                 2.923567890694162E+05,      /* I = 85 */
(PID.TID 0000.0001)                 2.872580915202295E+05,      /* I = 86 */
(PID.TID 0000.0001)                 2.809856491525217E+05,      /* I = 87 */
(PID.TID 0000.0001)                 2.734980225206389E+05,      /* I = 88 */
(PID.TID 0000.0001)                 2.647274964828301E+05,      /* I = 89 */
(PID.TID 0000.0001)                 2.545652950875683E+05,      /* I = 90 */
(PID.TID 0000.0001)                 2.428369969078989E+05,      /* I = 91 */
(PID.TID 0000.0001)                 2.292584591272880E+05,      /* I = 92 */
(PID.TID 0000.0001)                 2.133486626971531E+05,      /* I = 93 */
(PID.TID 0000.0001)                 1.942331448101592E+05,      /* I = 94 */
(PID.TID 0000.0001)                 1.701080315742101E+05,      /* I = 95 */
(PID.TID 0000.0001)                 1.362652340208229E+05,      /* I = 96 */
(PID.TID 0000.0001)                 8.015229982413632E+04,      /* I = 97 */
(PID.TID 0000.0001)                 1.362652340208229E+05,      /* I = 98 */
(PID.TID 0000.0001)                 1.701080315742101E+05,      /* I = 99 */
(PID.TID 0000.0001)                 1.942331448101592E+05,      /* I =100 */
(PID.TID 0000.0001)                 2.133486626971531E+05,      /* I =101 */
(PID.TID 0000.0001)                 2.292584591272880E+05,      /* I =102 */
(PID.TID 0000.0001)                 2.428369969078989E+05,      /* I =103 */
(PID.TID 0000.0001)                 2.545652950875683E+05,      /* I =104 */
(PID.TID 0000.0001)                 2.647274964828301E+05,      /* I =105 */
(PID.TID 0000.0001)                 2.734980225206389E+05,      /* I =106 */
(PID.TID 0000.0001)                 2.809856491525217E+05,      /* I =107 */
(PID.TID 0000.0001)                 2.872580915202295E+05,      /* I =108 */
(PID.TID 0000.0001)                 2.923567890694162E+05,      /* I =109 */
(PID.TID 0000.0001)                 2.963063101754721E+05,      /* I =110 */
(PID.TID 0000.0001)                 2.991205495886625E+05,      /* I =111 */
(PID.TID 0000.0001)                 3.008068453676764E+05,      /* I =112 */
(PID.TID 0000.0001)                 3.013686170436881E+05,      /* I =113 */
(PID.TID 0000.0001)                 3.008068453676764E+05,      /* I =114 */
(PID.TID 0000.0001)                 2.991205495886625E+05,      /* I =115 */
(PID.TID 0000.0001)                 2.963063101754721E+05,      /* I =116 */
(PID.TID 0000.0001)                 2.923567890694162E+05,      /* I =117 */
(PID.TID 0000.0001)                 2.872580915202295E+05,      /* I =118 */
(PID.TID 0000.0001)                 2.809856491525217E+05,      /* I =119 */
(PID.TID 0000.0001)                 2.734980225206389E+05,      /* I =120 */
(PID.TID 0000.0001)                 2.647274964828301E+05,      /* I =121 */
(PID.TID 0000.0001)                 2.545652950875683E+05,      /* I =122 */
(PID.TID 0000.0001)                 2.428369969078989E+05,      /* I =123 */
(PID.TID 0000.0001)                 2.292584591272880E+05,      /* I =124 */
(PID.TID 0000.0001)                 2.133486626971531E+05,      /* I =125 */
(PID.TID 0000.0001)                 1.942331448101592E+05,      /* I =126 */
(PID.TID 0000.0001)                 1.701080315742101E+05,      /* I =127 */
(PID.TID 0000.0001)                 1.362652340208229E+05,      /* I =128 */
(PID.TID 0000.0001)                 8.015229982413632E+04,      /* I =129 */
(PID.TID 0000.0001)                 1.362652340208229E+05,      /* I =130 */
(PID.TID 0000.0001)                 1.701080315742101E+05,      /* I =131 */
(PID.TID 0000.0001)                 1.942331448101592E+05,      /* I =132 */
(PID.TID 0000.0001)                 2.133486626971531E+05,      /* I =133 */
(PID.TID 0000.0001)                 2.292584591272880E+05,      /* I =134 */
(PID.TID 0000.0001)                 2.428369969078989E+05,      /* I =135 */
(PID.TID 0000.0001)                 2.545652950875683E+05,      /* I =136 */
(PID.TID 0000.0001)                 2.647274964828301E+05,      /* I =137 */
(PID.TID 0000.0001)                 2.734980225206389E+05,      /* I =138 */
(PID.TID 0000.0001)                 2.809856491525217E+05,      /* I =139 */
(PID.TID 0000.0001)                 2.872580915202295E+05,      /* I =140 */
(PID.TID 0000.0001)                 2.923567890694162E+05,      /* I =141 */
(PID.TID 0000.0001)                 2.963063101754721E+05,      /* I =142 */
(PID.TID 0000.0001)                 2.991205495886625E+05,      /* I =143 */
(PID.TID 0000.0001)                 3.008068453676764E+05,      /* I =144 */
(PID.TID 0000.0001)                 3.013686170436881E+05,      /* I =145 */
(PID.TID 0000.0001)                 3.008068453676764E+05,      /* I =146 */
(PID.TID 0000.0001)                 2.991205495886625E+05,      /* I =147 */
(PID.TID 0000.0001)                 2.963063101754721E+05,      /* I =148 */
(PID.TID 0000.0001)                 2.923567890694162E+05,      /* I =149 */
(PID.TID 0000.0001)                 2.872580915202295E+05,      /* I =150 */
(PID.TID 0000.0001)                 2.809856491525217E+05,      /* I =151 */
(PID.TID 0000.0001)                 2.734980225206389E+05,      /* I =152 */
(PID.TID 0000.0001)                 2.647274964828301E+05,      /* I =153 */
(PID.TID 0000.0001)                 2.545652950875683E+05,      /* I =154 */
(PID.TID 0000.0001)                 2.428369969078989E+05,      /* I =155 */
(PID.TID 0000.0001)                 2.292584591272880E+05,      /* I =156 */
(PID.TID 0000.0001)                 2.133486626971531E+05,      /* I =157 */
(PID.TID 0000.0001)                 1.942331448101592E+05,      /* I =158 */
(PID.TID 0000.0001)                 1.701080315742101E+05,      /* I =159 */
(PID.TID 0000.0001)                 1.362652340208229E+05,      /* I =160 */
(PID.TID 0000.0001)                 8.015229982413632E+04,      /* I =161 */
(PID.TID 0000.0001)                 1.362652340208229E+05,      /* I =162 */
(PID.TID 0000.0001)                 1.701080315742101E+05,      /* I =163 */
(PID.TID 0000.0001)                 1.942331448101592E+05,      /* I =164 */
(PID.TID 0000.0001)                 2.133486626971531E+05,      /* I =165 */
(PID.TID 0000.0001)                 2.292584591272880E+05,      /* I =166 */
(PID.TID 0000.0001)                 2.428369969078989E+05,      /* I =167 */
(PID.TID 0000.0001)                 2.545652950875683E+05,      /* I =168 */
(PID.TID 0000.0001)                 2.647274964828301E+05,      /* I =169 */
(PID.TID 0000.0001)                 2.734980225206389E+05,      /* I =170 */
(PID.TID 0000.0001)                 2.809856491525217E+05,      /* I =171 */
(PID.TID 0000.0001)                 2.872580915202295E+05,      /* I =172 */
(PID.TID 0000.0001)                 2.923567890694162E+05,      /* I =173 */
(PID.TID 0000.0001)                 2.963063101754721E+05,      /* I =174 */
(PID.TID 0000.0001)                 2.991205495886625E+05,      /* I =175 */
(PID.TID 0000.0001)                 3.008068453676764E+05,      /* I =176 */
(PID.TID 0000.0001)                 3.013686170436881E+05,      /* I =177 */
(PID.TID 0000.0001)                 3.008068453676764E+05,      /* I =178 */
(PID.TID 0000.0001)                 2.991205495886625E+05,      /* I =179 */
(PID.TID 0000.0001)                 2.963063101754721E+05,      /* I =180 */
(PID.TID 0000.0001)                 2.923567890694162E+05,      /* I =181 */
(PID.TID 0000.0001)                 2.872580915202295E+05,      /* I =182 */
(PID.TID 0000.0001)                 2.809856491525217E+05,      /* I =183 */
(PID.TID 0000.0001)                 2.734980225206389E+05,      /* I =184 */
(PID.TID 0000.0001)                 2.647274964828301E+05,      /* I =185 */
(PID.TID 0000.0001)                 2.545652950875683E+05,      /* I =186 */
(PID.TID 0000.0001)                 2.428369969078989E+05,      /* I =187 */
(PID.TID 0000.0001)                 2.292584591272880E+05,      /* I =188 */
(PID.TID 0000.0001)                 2.133486626971531E+05,      /* I =189 */
(PID.TID 0000.0001)                 1.942331448101592E+05,      /* I =190 */
(PID.TID 0000.0001)                 1.701080315742101E+05,      /* I =191 */
(PID.TID 0000.0001)                 1.362652340208229E+05       /* I =192 */
(PID.TID 0000.0001)     ;
(PID.TID 0000.0001) dyU =  /* dyU(1,:,1,:) ( m - cartesian, degrees - spherical ) */
(PID.TID 0000.0001)                 8.015229982413632E+04,      /* J =  1 */
(PID.TID 0000.0001)                 1.333130744933864E+05,      /* J =  2 */
(PID.TID 0000.0001)                 1.691744868129062E+05,      /* J =  3 */
(PID.TID 0000.0001)                 1.937548202849060E+05,      /* J =  4 */
(PID.TID 0000.0001)                 2.130490056267208E+05,      /* J =  5 */
(PID.TID 0000.0001)                 2.290479919481738E+05,      /* J =  6 */
(PID.TID 0000.0001)                 2.426774358027003E+05,      /* J =  7 */
(PID.TID 0000.0001)                 2.544372984215561E+05,      /* J =  8 */
(PID.TID 0000.0001)                 2.646201463834826E+05,      /* J =  9 */
(PID.TID 0000.0001)                 2.734046499619031E+05,      /* J = 10 */
(PID.TID 0000.0001)                 2.809019351693761E+05,      /* J = 11 */
(PID.TID 0000.0001)                 2.871811105274442E+05,      /* J = 12 */
(PID.TID 0000.0001)                 2.922844849381675E+05,      /* J = 13 */
(PID.TID 0000.0001)                 2.962371870847826E+05,      /* J = 14 */
(PID.TID 0000.0001)                 2.990534755671296E+05,      /* J = 15 */
(PID.TID 0000.0001)                 3.007409169495504E+05,      /* J = 16 */
(PID.TID 0000.0001)                 3.013031486919771E+05,      /* J = 17 */
(PID.TID 0000.0001)                 3.007409169495504E+05,      /* J = 18 */
(PID.TID 0000.0001)                 2.990534755671296E+05,      /* J = 19 */
(PID.TID 0000.0001)                 2.962371870847826E+05,      /* J = 20 */
(PID.TID 0000.0001)                 2.922844849381675E+05,      /* J = 21 */
(PID.TID 0000.0001)                 2.871811105274442E+05,      /* J = 22 */
(PID.TID 0000.0001)                 2.809019351693761E+05,      /* J = 23 */
(PID.TID 0000.0001)                 2.734046499619031E+05,      /* J = 24 */
(PID.TID 0000.0001)                 2.646201463834826E+05,      /* J = 25 */
(PID.TID 0000.0001)                 2.544372984215561E+05,      /* J = 26 */
(PID.TID 0000.0001)                 2.426774358027003E+05,      /* J = 27 */
(PID.TID 0000.0001)                 2.290479919481738E+05,      /* J = 28 */
(PID.TID 0000.0001)                 2.130490056267208E+05,      /* J = 29 */
(PID.TID 0000.0001)                 1.937548202849060E+05,      /* J = 30 */
(PID.TID 0000.0001)                 1.691744868129062E+05,      /* J = 31 */
(PID.TID 0000.0001)                 1.333130744933864E+05       /* J = 32 */
(PID.TID 0000.0001)     ;
(PID.TID 0000.0001) rA =  /* rA(:,1,:,1) ( m - cartesian, degrees - spherical ) */
(PID.TID 0000.0001)                 1.401900702255611E+10,      /* I =  1 */
(PID.TID 0000.0001)                 2.459906945574446E+10,      /* I =  2 */
(PID.TID 0000.0001)                 3.378518544307869E+10,      /* I =  3 */
(PID.TID 0000.0001)                 4.192037169898667E+10,      /* I =  4 */
(PID.TID 0000.0001)                 4.925938996118163E+10,      /* I =  5 */
(PID.TID 0000.0001)                 5.594154126607553E+10,      /* I =  6 */
(PID.TID 0000.0001)                 6.203683527772523E+10,      /* I =  7 */
(PID.TID 0000.0001)                 6.757541173817516E+10,      /* I =  8 */
(PID.TID 0000.0001)                 7.256353271748119E+10,      /* I =  9 */
(PID.TID 0000.0001)                 7.699293007098555E+10,      /* I = 10 */
(PID.TID 0000.0001)                 8.084683449728902E+10,      /* I = 11 */
(PID.TID 0000.0001)                 8.410423102796223E+10,      /* I = 12 */
(PID.TID 0000.0001)                 8.674306976737517E+10,      /* I = 13 */
(PID.TID 0000.0001)                 8.874277443041928E+10,      /* I = 14 */
(PID.TID 0000.0001)                 9.008620045350865E+10,      /* I = 15 */
(PID.TID 0000.0001)                 9.076111290418457E+10,      /* I = 16 */
(PID.TID 0000.0001)                 9.076111290422060E+10,      /* I = 17 */
(PID.TID 0000.0001)                 9.008620045354469E+10,      /* I = 18 */
(PID.TID 0000.0001)                 8.874277443041928E+10,      /* I = 19 */
(PID.TID 0000.0001)                 8.674306976741121E+10,      /* I = 20 */
(PID.TID 0000.0001)                 8.410423102799828E+10,      /* I = 21 */
(PID.TID 0000.0001)                 8.084683449728902E+10,      /* I = 22 */
(PID.TID 0000.0001)                 7.699293007098555E+10,      /* I = 23 */
(PID.TID 0000.0001)                 7.256353271748119E+10,      /* I = 24 */
(PID.TID 0000.0001)                 6.757541173817516E+10,      /* I = 25 */
(PID.TID 0000.0001)                 6.203683527772523E+10,      /* I = 26 */
(PID.TID 0000.0001)                 5.594154126611156E+10,      /* I = 27 */
(PID.TID 0000.0001)                 4.925938996118163E+10,      /* I = 28 */
(PID.TID 0000.0001)                 4.192037169898667E+10,      /* I = 29 */
(PID.TID 0000.0001)                 3.378518544304265E+10,      /* I = 30 */
(PID.TID 0000.0001)                 2.459906945574446E+10,      /* I = 31 */
(PID.TID 0000.0001)                 1.401900702259215E+10,      /* I = 32 */
(PID.TID 0000.0001)                 1.401900702255611E+10,      /* I = 33 */
(PID.TID 0000.0001)                 2.459906945574446E+10,      /* I = 34 */
(PID.TID 0000.0001)                 3.378518544307869E+10,      /* I = 35 */
(PID.TID 0000.0001)                 4.192037169898667E+10,      /* I = 36 */
(PID.TID 0000.0001)                 4.925938996118163E+10,      /* I = 37 */
(PID.TID 0000.0001)                 5.594154126607553E+10,      /* I = 38 */
(PID.TID 0000.0001)                 6.203683527772523E+10,      /* I = 39 */
(PID.TID 0000.0001)                 6.757541173817516E+10,      /* I = 40 */
(PID.TID 0000.0001)                 7.256353271748119E+10,      /* I = 41 */
(PID.TID 0000.0001)                 7.699293007098555E+10,      /* I = 42 */
(PID.TID 0000.0001)                 8.084683449728902E+10,      /* I = 43 */
(PID.TID 0000.0001)                 8.410423102796223E+10,      /* I = 44 */
(PID.TID 0000.0001)                 8.674306976737517E+10,      /* I = 45 */
(PID.TID 0000.0001)                 8.874277443041928E+10,      /* I = 46 */
(PID.TID 0000.0001)                 9.008620045350865E+10,      /* I = 47 */
(PID.TID 0000.0001)                 9.076111290418457E+10,      /* I = 48 */
(PID.TID 0000.0001)                 9.076111290422060E+10,      /* I = 49 */
(PID.TID 0000.0001)                 9.008620045354469E+10,      /* I = 50 */
(PID.TID 0000.0001)                 8.874277443041928E+10,      /* I = 51 */
(PID.TID 0000.0001)                 8.674306976741121E+10,      /* I = 52 */
(PID.TID 0000.0001)                 8.410423102799828E+10,      /* I = 53 */
(PID.TID 0000.0001)                 8.084683449728902E+10,      /* I = 54 */
(PID.TID 0000.0001)                 7.699293007098555E+10,      /* I = 55 */
(PID.TID 0000.0001)                 7.256353271748119E+10,      /* I = 56 */
(PID.TID 0000.0001)                 6.757541173817516E+10,      /* I = 57 */
(PID.TID 0000.0001)                 6.203683527772523E+10,      /* I = 58 */
(PID.TID 0000.0001)                 5.594154126611156E+10,      /* I = 59 */
(PID.TID 0000.0001)                 4.925938996118163E+10,      /* I = 60 */
(PID.TID 0000.0001)                 4.192037169898667E+10,      /* I = 61 */
(PID.TID 0000.0001)                 3.378518544304265E+10,      /* I = 62 */
(PID.TID 0000.0001)                 2.459906945574446E+10,      /* I = 63 */
(PID.TID 0000.0001)                 1.401900702259215E+10,      /* I = 64 */
(PID.TID 0000.0001)                 1.401900702255611E+10,      /* I = 65 */
(PID.TID 0000.0001)                 2.459906945574446E+10,      /* I = 66 */
(PID.TID 0000.0001)                 3.378518544307869E+10,      /* I = 67 */
(PID.TID 0000.0001)                 4.192037169898667E+10,      /* I = 68 */
(PID.TID 0000.0001)                 4.925938996118163E+10,      /* I = 69 */
(PID.TID 0000.0001)                 5.594154126607553E+10,      /* I = 70 */
(PID.TID 0000.0001)                 6.203683527772523E+10,      /* I = 71 */
(PID.TID 0000.0001)                 6.757541173817516E+10,      /* I = 72 */
(PID.TID 0000.0001)                 7.256353271748119E+10,      /* I = 73 */
(PID.TID 0000.0001)                 7.699293007098555E+10,      /* I = 74 */
(PID.TID 0000.0001)                 8.084683449728902E+10,      /* I = 75 */
(PID.TID 0000.0001)                 8.410423102796223E+10,      /* I = 76 */
(PID.TID 0000.0001)                 8.674306976737517E+10,      /* I = 77 */
(PID.TID 0000.0001)                 8.874277443041928E+10,      /* I = 78 */
(PID.TID 0000.0001)                 9.008620045350865E+10,      /* I = 79 */
(PID.TID 0000.0001)                 9.076111290418457E+10,      /* I = 80 */
(PID.TID 0000.0001)                 9.076111290422060E+10,      /* I = 81 */
(PID.TID 0000.0001)                 9.008620045354469E+10,      /* I = 82 */
(PID.TID 0000.0001)                 8.874277443041928E+10,      /* I = 83 */
(PID.TID 0000.0001)                 8.674306976741121E+10,      /* I = 84 */
(PID.TID 0000.0001)                 8.410423102799828E+10,      /* I = 85 */
(PID.TID 0000.0001)                 8.084683449728902E+10,      /* I = 86 */
(PID.TID 0000.0001)                 7.699293007098555E+10,      /* I = 87 */
(PID.TID 0000.0001)                 7.256353271748119E+10,      /* I = 88 */
(PID.TID 0000.0001)                 6.757541173817516E+10,      /* I = 89 */
(PID.TID 0000.0001)                 6.203683527772523E+10,      /* I = 90 */
(PID.TID 0000.0001)                 5.594154126611156E+10,      /* I = 91 */
(PID.TID 0000.0001)                 4.925938996118163E+10,      /* I = 92 */
(PID.TID 0000.0001)                 4.192037169898667E+10,      /* I = 93 */
(PID.TID 0000.0001)                 3.378518544304265E+10,      /* I = 94 */
(PID.TID 0000.0001)                 2.459906945574446E+10,      /* I = 95 */
(PID.TID 0000.0001)                 1.401900702259215E+10,      /* I = 96 */
(PID.TID 0000.0001)                 1.401900702255611E+10,      /* I = 97 */
(PID.TID 0000.0001)                 2.459906945574446E+10,      /* I = 98 */
(PID.TID 0000.0001)                 3.378518544307869E+10,      /* I = 99 */
(PID.TID 0000.0001)                 4.192037169898667E+10,      /* I =100 */
(PID.TID 0000.0001)                 4.925938996118163E+10,      /* I =101 */
(PID.TID 0000.0001)                 5.594154126607553E+10,      /* I =102 */
(PID.TID 0000.0001)                 6.203683527772523E+10,      /* I =103 */
(PID.TID 0000.0001)                 6.757541173817516E+10,      /* I =104 */
(PID.TID 0000.0001)                 7.256353271748119E+10,      /* I =105 */
(PID.TID 0000.0001)                 7.699293007098555E+10,      /* I =106 */
(PID.TID 0000.0001)                 8.084683449728902E+10,      /* I =107 */
(PID.TID 0000.0001)                 8.410423102796223E+10,      /* I =108 */
(PID.TID 0000.0001)                 8.674306976737517E+10,      /* I =109 */
(PID.TID 0000.0001)                 8.874277443041928E+10,      /* I =110 */
(PID.TID 0000.0001)                 9.008620045350865E+10,      /* I =111 */
(PID.TID 0000.0001)                 9.076111290418457E+10,      /* I =112 */
(PID.TID 0000.0001)                 9.076111290422060E+10,      /* I =113 */
(PID.TID 0000.0001)                 9.008620045354469E+10,      /* I =114 */
(PID.TID 0000.0001)                 8.874277443041928E+10,      /* I =115 */
(PID.TID 0000.0001)                 8.674306976741121E+10,      /* I =116 */
(PID.TID 0000.0001)                 8.410423102799828E+10,      /* I =117 */
(PID.TID 0000.0001)                 8.084683449728902E+10,      /* I =118 */
(PID.TID 0000.0001)                 7.699293007098555E+10,      /* I =119 */
(PID.TID 0000.0001)                 7.256353271748119E+10,      /* I =120 */
(PID.TID 0000.0001)                 6.757541173817516E+10,      /* I =121 */
(PID.TID 0000.0001)                 6.203683527772523E+10,      /* I =122 */
(PID.TID 0000.0001)                 5.594154126611156E+10,      /* I =123 */
(PID.TID 0000.0001)                 4.925938996118163E+10,      /* I =124 */
(PID.TID 0000.0001)                 4.192037169898667E+10,      /* I =125 */
(PID.TID 0000.0001)                 3.378518544304265E+10,      /* I =126 */
(PID.TID 0000.0001)                 2.459906945574446E+10,      /* I =127 */
(PID.TID 0000.0001)                 1.401900702259215E+10,      /* I =128 */
(PID.TID 0000.0001)                 1.401900702255611E+10,      /* I =129 */
(PID.TID 0000.0001)                 2.459906945574446E+10,      /* I =130 */
(PID.TID 0000.0001)                 3.378518544307869E+10,      /* I =131 */
(PID.TID 0000.0001)                 4.192037169898667E+10,      /* I =132 */
(PID.TID 0000.0001)                 4.925938996118163E+10,      /* I =133 */
(PID.TID 0000.0001)                 5.594154126607553E+10,      /* I =134 */
(PID.TID 0000.0001)                 6.203683527772523E+10,      /* I =135 */
(PID.TID 0000.0001)                 6.757541173817516E+10,      /* I =136 */
(PID.TID 0000.0001)                 7.256353271748119E+10,      /* I =137 */
(PID.TID 0000.0001)                 7.699293007098555E+10,      /* I =138 */
(PID.TID 0000.0001)                 8.084683449728902E+10,      /* I =139 */
(PID.TID 0000.0001)                 8.410423102796223E+10,      /* I =140 */
(PID.TID 0000.0001)                 8.674306976737517E+10,      /* I =141 */
(PID.TID 0000.0001)                 8.874277443041928E+10,      /* I =142 */
(PID.TID 0000.0001)                 9.008620045350865E+10,      /* I =143 */
(PID.TID 0000.0001)                 9.076111290418457E+10,      /* I =144 */
(PID.TID 0000.0001)                 9.076111290422060E+10,      /* I =145 */
(PID.TID 0000.0001)                 9.008620045354469E+10,      /* I =146 */
(PID.TID 0000.0001)                 8.874277443041928E+10,      /* I =147 */
(PID.TID 0000.0001)                 8.674306976741121E+10,      /* I =148 */
(PID.TID 0000.0001)                 8.410423102799828E+10,      /* I =149 */
(PID.TID 0000.0001)                 8.084683449728902E+10,      /* I =150 */
(PID.TID 0000.0001)                 7.699293007098555E+10,      /* I =151 */
(PID.TID 0000.0001)                 7.256353271748119E+10,      /* I =152 */
(PID.TID 0000.0001)                 6.757541173817516E+10,      /* I =153 */
(PID.TID 0000.0001)                 6.203683527772523E+10,      /* I =154 */
(PID.TID 0000.0001)                 5.594154126611156E+10,      /* I =155 */
(PID.TID 0000.0001)                 4.925938996118163E+10,      /* I =156 */
(PID.TID 0000.0001)                 4.192037169898667E+10,      /* I =157 */
(PID.TID 0000.0001)                 3.378518544304265E+10,      /* I =158 */
(PID.TID 0000.0001)                 2.459906945574446E+10,      /* I =159 */
(PID.TID 0000.0001)                 1.401900702259215E+10,      /* I =160 */
(PID.TID 0000.0001)                 1.401900702255611E+10,      /* I =161 */
(PID.TID 0000.0001)                 2.459906945574446E+10,      /* I =162 */
(PID.TID 0000.0001)                 3.378518544307869E+10,      /* I =163 */
(PID.TID 0000.0001)                 4.192037169898667E+10,      /* I =164 */
(PID.TID 0000.0001)                 4.925938996118163E+10,      /* I =165 */
(PID.TID 0000.0001)                 5.594154126607553E+10,      /* I =166 */
(PID.TID 0000.0001)                 6.203683527772523E+10,      /* I =167 */
(PID.TID 0000.0001)                 6.757541173817516E+10,      /* I =168 */
(PID.TID 0000.0001)                 7.256353271748119E+10,      /* I =169 */
(PID.TID 0000.0001)                 7.699293007098555E+10,      /* I =170 */
(PID.TID 0000.0001)                 8.084683449728902E+10,      /* I =171 */
(PID.TID 0000.0001)                 8.410423102796223E+10,      /* I =172 */
(PID.TID 0000.0001)                 8.674306976737517E+10,      /* I =173 */
(PID.TID 0000.0001)                 8.874277443041928E+10,      /* I =174 */
(PID.TID 0000.0001)                 9.008620045350865E+10,      /* I =175 */
(PID.TID 0000.0001)                 9.076111290418457E+10,      /* I =176 */
(PID.TID 0000.0001)                 9.076111290422060E+10,      /* I =177 */
(PID.TID 0000.0001)                 9.008620045354469E+10,      /* I =178 */
(PID.TID 0000.0001)                 8.874277443041928E+10,      /* I =179 */
(PID.TID 0000.0001)                 8.674306976741121E+10,      /* I =180 */
(PID.TID 0000.0001)                 8.410423102799828E+10,      /* I =181 */
(PID.TID 0000.0001)                 8.084683449728902E+10,      /* I =182 */
(PID.TID 0000.0001)                 7.699293007098555E+10,      /* I =183 */
(PID.TID 0000.0001)                 7.256353271748119E+10,      /* I =184 */
(PID.TID 0000.0001)                 6.757541173817516E+10,      /* I =185 */
(PID.TID 0000.0001)                 6.203683527772523E+10,      /* I =186 */
(PID.TID 0000.0001)                 5.594154126611156E+10,      /* I =187 */
(PID.TID 0000.0001)                 4.925938996118163E+10,      /* I =188 */
(PID.TID 0000.0001)                 4.192037169898667E+10,      /* I =189 */
(PID.TID 0000.0001)                 3.378518544304265E+10,      /* I =190 */
(PID.TID 0000.0001)                 2.459906945574446E+10,      /* I =191 */
(PID.TID 0000.0001)                 1.401900702259215E+10       /* I =192 */
(PID.TID 0000.0001)     ;
(PID.TID 0000.0001) rA =  /* rA(1,:,1,:) ( m - cartesian, degrees - spherical ) */
(PID.TID 0000.0001)                 1.401900702255611E+10,      /* J =  1 */
(PID.TID 0000.0001)                 2.459906945574446E+10,      /* J =  2 */
(PID.TID 0000.0001)                 3.378518544307869E+10,      /* J =  3 */
(PID.TID 0000.0001)                 4.192037169898667E+10,      /* J =  4 */
(PID.TID 0000.0001)                 4.925938996118163E+10,      /* J =  5 */
(PID.TID 0000.0001)                 5.594154126607553E+10,      /* J =  6 */
(PID.TID 0000.0001)                 6.203683527776127E+10,      /* J =  7 */
(PID.TID 0000.0001)                 6.757541173817516E+10,      /* J =  8 */
(PID.TID 0000.0001)                 7.256353271748119E+10,      /* J =  9 */
(PID.TID 0000.0001)                 7.699293007098555E+10,      /* J = 10 */
(PID.TID 0000.0001)                 8.084683449728902E+10,      /* J = 11 */
(PID.TID 0000.0001)                 8.410423102799828E+10,      /* J = 12 */
(PID.TID 0000.0001)                 8.674306976737517E+10,      /* J = 13 */
(PID.TID 0000.0001)                 8.874277443041928E+10,      /* J = 14 */
(PID.TID 0000.0001)                 9.008620045350865E+10,      /* J = 15 */
(PID.TID 0000.0001)                 9.076111290418457E+10,      /* J = 16 */
(PID.TID 0000.0001)                 9.076111290422060E+10,      /* J = 17 */
(PID.TID 0000.0001)                 9.008620045354469E+10,      /* J = 18 */
(PID.TID 0000.0001)                 8.874277443041928E+10,      /* J = 19 */
(PID.TID 0000.0001)                 8.674306976737517E+10,      /* J = 20 */
(PID.TID 0000.0001)                 8.410423102799828E+10,      /* J = 21 */
(PID.TID 0000.0001)                 8.084683449728902E+10,      /* J = 22 */
(PID.TID 0000.0001)                 7.699293007098555E+10,      /* J = 23 */
(PID.TID 0000.0001)                 7.256353271748119E+10,      /* J = 24 */
(PID.TID 0000.0001)                 6.757541173817516E+10,      /* J = 25 */
(PID.TID 0000.0001)                 6.203683527772523E+10,      /* J = 26 */
(PID.TID 0000.0001)                 5.594154126607553E+10,      /* J = 27 */
(PID.TID 0000.0001)                 4.925938996118163E+10,      /* J = 28 */
(PID.TID 0000.0001)                 4.192037169898667E+10,      /* J = 29 */
(PID.TID 0000.0001)                 3.378518544307869E+10,      /* J = 30 */
(PID.TID 0000.0001)                 2.459906945574446E+10,      /* J = 31 */
(PID.TID 0000.0001)                 1.401900702259215E+10       /* J = 32 */
(PID.TID 0000.0001)     ;
(PID.TID 0000.0001) rAw =  /* rAw(:,1,:,1) ( m - cartesian, degrees - spherical ) */
(PID.TID 0000.0001)                 1.216690346714270E+10,      /* I =  1 */
(PID.TID 0000.0001)                 1.974052138506315E+10,      /* I =  2 */
(PID.TID 0000.0001)                 2.943712825252015E+10,      /* I =  3 */
(PID.TID 0000.0001)                 3.801790263324359E+10,      /* I =  4 */
(PID.TID 0000.0001)                 4.571243814189866E+10,      /* I =  5 */
(PID.TID 0000.0001)                 5.269930713599979E+10,      /* I =  6 */
(PID.TID 0000.0001)                 5.907428494299063E+10,      /* I =  7 */
(PID.TID 0000.0001)                 6.488320895111514E+10,      /* I =  8 */
(PID.TID 0000.0001)                 7.014205907741882E+10,      /* I =  9 */
(PID.TID 0000.0001)                 7.484854821847499E+10,      /* I = 10 */
(PID.TID 0000.0001)                 7.898934631431560E+10,      /* I = 11 */
(PID.TID 0000.0001)                 8.254500894894537E+10,      /* I = 12 */
(PID.TID 0000.0001)                 8.549360686473492E+10,      /* I = 13 */
(PID.TID 0000.0001)                 8.781353403175085E+10,      /* I = 14 */
(PID.TID 0000.0001)                 8.948571540392021E+10,      /* I = 15 */
(PID.TID 0000.0001)                 9.049530583086168E+10,      /* I = 16 */
(PID.TID 0000.0001)                 9.083293515008307E+10,      /* I = 17 */
(PID.TID 0000.0001)                 9.049530583087070E+10,      /* I = 18 */
(PID.TID 0000.0001)                 8.948571540391121E+10,      /* I = 19 */
(PID.TID 0000.0001)                 8.781353403174185E+10,      /* I = 20 */
(PID.TID 0000.0001)                 8.549360686467184E+10,      /* I = 21 */
(PID.TID 0000.0001)                 8.254500894890933E+10,      /* I = 22 */
(PID.TID 0000.0001)                 7.898934631434262E+10,      /* I = 23 */
(PID.TID 0000.0001)                 7.484854821844795E+10,      /* I = 24 */
(PID.TID 0000.0001)                 7.014205907742783E+10,      /* I = 25 */
(PID.TID 0000.0001)                 6.488320895111514E+10,      /* I = 26 */
(PID.TID 0000.0001)                 5.907428494299063E+10,      /* I = 27 */
(PID.TID 0000.0001)                 5.269930713599078E+10,      /* I = 28 */
(PID.TID 0000.0001)                 4.571243814190767E+10,      /* I = 29 */
(PID.TID 0000.0001)                 3.801790263325260E+10,      /* I = 30 */
(PID.TID 0000.0001)                 2.943712825251114E+10,      /* I = 31 */
(PID.TID 0000.0001)                 1.974052138509018E+10,      /* I = 32 */
(PID.TID 0000.0001)                 1.216690346714270E+10,      /* I = 33 */
(PID.TID 0000.0001)                 1.974052138506315E+10,      /* I = 34 */
(PID.TID 0000.0001)                 2.943712825252015E+10,      /* I = 35 */
(PID.TID 0000.0001)                 3.801790263324359E+10,      /* I = 36 */
(PID.TID 0000.0001)                 4.571243814189866E+10,      /* I = 37 */
(PID.TID 0000.0001)                 5.269930713599979E+10,      /* I = 38 */
(PID.TID 0000.0001)                 5.907428494299063E+10,      /* I = 39 */
(PID.TID 0000.0001)                 6.488320895111514E+10,      /* I = 40 */
(PID.TID 0000.0001)                 7.014205907741882E+10,      /* I = 41 */
(PID.TID 0000.0001)                 7.484854821847499E+10,      /* I = 42 */
(PID.TID 0000.0001)                 7.898934631431560E+10,      /* I = 43 */
(PID.TID 0000.0001)                 8.254500894894537E+10,      /* I = 44 */
(PID.TID 0000.0001)                 8.549360686473492E+10,      /* I = 45 */
(PID.TID 0000.0001)                 8.781353403175085E+10,      /* I = 46 */
(PID.TID 0000.0001)                 8.948571540392021E+10,      /* I = 47 */
(PID.TID 0000.0001)                 9.049530583086168E+10,      /* I = 48 */
(PID.TID 0000.0001)                 9.083293515008307E+10,      /* I = 49 */
(PID.TID 0000.0001)                 9.049530583087070E+10,      /* I = 50 */
(PID.TID 0000.0001)                 8.948571540391121E+10,      /* I = 51 */
(PID.TID 0000.0001)                 8.781353403174185E+10,      /* I = 52 */
(PID.TID 0000.0001)                 8.549360686467184E+10,      /* I = 53 */
(PID.TID 0000.0001)                 8.254500894890933E+10,      /* I = 54 */
(PID.TID 0000.0001)                 7.898934631434262E+10,      /* I = 55 */
(PID.TID 0000.0001)                 7.484854821844795E+10,      /* I = 56 */
(PID.TID 0000.0001)                 7.014205907742783E+10,      /* I = 57 */
(PID.TID 0000.0001)                 6.488320895111514E+10,      /* I = 58 */
(PID.TID 0000.0001)                 5.907428494299063E+10,      /* I = 59 */
(PID.TID 0000.0001)                 5.269930713599078E+10,      /* I = 60 */
(PID.TID 0000.0001)                 4.571243814190767E+10,      /* I = 61 */
(PID.TID 0000.0001)                 3.801790263325260E+10,      /* I = 62 */
(PID.TID 0000.0001)                 2.943712825251114E+10,      /* I = 63 */
(PID.TID 0000.0001)                 1.974052138509018E+10,      /* I = 64 */
(PID.TID 0000.0001)                 1.216690346714270E+10,      /* I = 65 */
(PID.TID 0000.0001)                 1.974052138506315E+10,      /* I = 66 */
(PID.TID 0000.0001)                 2.943712825252015E+10,      /* I = 67 */
(PID.TID 0000.0001)                 3.801790263324359E+10,      /* I = 68 */
(PID.TID 0000.0001)                 4.571243814189866E+10,      /* I = 69 */
(PID.TID 0000.0001)                 5.269930713599979E+10,      /* I = 70 */
(PID.TID 0000.0001)                 5.907428494299063E+10,      /* I = 71 */
(PID.TID 0000.0001)                 6.488320895111514E+10,      /* I = 72 */
(PID.TID 0000.0001)                 7.014205907741882E+10,      /* I = 73 */
(PID.TID 0000.0001)                 7.484854821847499E+10,      /* I = 74 */
(PID.TID 0000.0001)                 7.898934631431560E+10,      /* I = 75 */
(PID.TID 0000.0001)                 8.254500894894537E+10,      /* I = 76 */
(PID.TID 0000.0001)                 8.549360686473492E+10,      /* I = 77 */
(PID.TID 0000.0001)                 8.781353403175085E+10,      /* I = 78 */
(PID.TID 0000.0001)                 8.948571540392021E+10,      /* I = 79 */
(PID.TID 0000.0001)                 9.049530583086168E+10,      /* I = 80 */
(PID.TID 0000.0001)                 9.083293515008307E+10,      /* I = 81 */
(PID.TID 0000.0001)                 9.049530583087070E+10,      /* I = 82 */
(PID.TID 0000.0001)                 8.948571540391121E+10,      /* I = 83 */
(PID.TID 0000.0001)                 8.781353403174185E+10,      /* I = 84 */
(PID.TID 0000.0001)                 8.549360686467184E+10,      /* I = 85 */
(PID.TID 0000.0001)                 8.254500894890933E+10,      /* I = 86 */
(PID.TID 0000.0001)                 7.898934631434262E+10,      /* I = 87 */
(PID.TID 0000.0001)                 7.484854821844795E+10,      /* I = 88 */
(PID.TID 0000.0001)                 7.014205907742783E+10,      /* I = 89 */
(PID.TID 0000.0001)                 6.488320895111514E+10,      /* I = 90 */
(PID.TID 0000.0001)                 5.907428494299063E+10,      /* I = 91 */
(PID.TID 0000.0001)                 5.269930713599078E+10,      /* I = 92 */
(PID.TID 0000.0001)                 4.571243814190767E+10,      /* I = 93 */
(PID.TID 0000.0001)                 3.801790263325260E+10,      /* I = 94 */
(PID.TID 0000.0001)                 2.943712825251114E+10,      /* I = 95 */
(PID.TID 0000.0001)                 1.974052138509018E+10,      /* I = 96 */
(PID.TID 0000.0001)                 1.216690346714270E+10,      /* I = 97 */
(PID.TID 0000.0001)                 1.974052138506315E+10,      /* I = 98 */
(PID.TID 0000.0001)                 2.943712825252015E+10,      /* I = 99 */
(PID.TID 0000.0001)                 3.801790263324359E+10,      /* I =100 */
(PID.TID 0000.0001)                 4.571243814189866E+10,      /* I =101 */
(PID.TID 0000.0001)                 5.269930713599979E+10,      /* I =102 */
(PID.TID 0000.0001)                 5.907428494299063E+10,      /* I =103 */
(PID.TID 0000.0001)                 6.488320895111514E+10,      /* I =104 */
(PID.TID 0000.0001)                 7.014205907741882E+10,      /* I =105 */
(PID.TID 0000.0001)                 7.484854821847499E+10,      /* I =106 */
(PID.TID 0000.0001)                 7.898934631431560E+10,      /* I =107 */
(PID.TID 0000.0001)                 8.254500894894537E+10,      /* I =108 */
(PID.TID 0000.0001)                 8.549360686473492E+10,      /* I =109 */
(PID.TID 0000.0001)                 8.781353403175085E+10,      /* I =110 */
(PID.TID 0000.0001)                 8.948571540392021E+10,      /* I =111 */
(PID.TID 0000.0001)                 9.049530583086168E+10,      /* I =112 */
(PID.TID 0000.0001)                 9.083293515008307E+10,      /* I =113 */
(PID.TID 0000.0001)                 9.049530583087070E+10,      /* I =114 */
(PID.TID 0000.0001)                 8.948571540391121E+10,      /* I =115 */
(PID.TID 0000.0001)                 8.781353403174185E+10,      /* I =116 */
(PID.TID 0000.0001)                 8.549360686467184E+10,      /* I =117 */
(PID.TID 0000.0001)                 8.254500894890933E+10,      /* I =118 */
(PID.TID 0000.0001)                 7.898934631434262E+10,      /* I =119 */
(PID.TID 0000.0001)                 7.484854821844795E+10,      /* I =120 */
(PID.TID 0000.0001)                 7.014205907742783E+10,      /* I =121 */
(PID.TID 0000.0001)                 6.488320895111514E+10,      /* I =122 */
(PID.TID 0000.0001)                 5.907428494299063E+10,      /* I =123 */
(PID.TID 0000.0001)                 5.269930713599078E+10,      /* I =124 */
(PID.TID 0000.0001)                 4.571243814190767E+10,      /* I =125 */
(PID.TID 0000.0001)                 3.801790263325260E+10,      /* I =126 */
(PID.TID 0000.0001)                 2.943712825251114E+10,      /* I =127 */
(PID.TID 0000.0001)                 1.974052138509018E+10,      /* I =128 */
(PID.TID 0000.0001)                 1.216690346714270E+10,      /* I =129 */
(PID.TID 0000.0001)                 1.974052138506315E+10,      /* I =130 */
(PID.TID 0000.0001)                 2.943712825252015E+10,      /* I =131 */
(PID.TID 0000.0001)                 3.801790263324359E+10,      /* I =132 */
(PID.TID 0000.0001)                 4.571243814189866E+10,      /* I =133 */
(PID.TID 0000.0001)                 5.269930713599979E+10,      /* I =134 */
(PID.TID 0000.0001)                 5.907428494299063E+10,      /* I =135 */
(PID.TID 0000.0001)                 6.488320895111514E+10,      /* I =136 */
(PID.TID 0000.0001)                 7.014205907741882E+10,      /* I =137 */
(PID.TID 0000.0001)                 7.484854821847499E+10,      /* I =138 */
(PID.TID 0000.0001)                 7.898934631431560E+10,      /* I =139 */
(PID.TID 0000.0001)                 8.254500894894537E+10,      /* I =140 */
(PID.TID 0000.0001)                 8.549360686473492E+10,      /* I =141 */
(PID.TID 0000.0001)                 8.781353403175085E+10,      /* I =142 */
(PID.TID 0000.0001)                 8.948571540392021E+10,      /* I =143 */
(PID.TID 0000.0001)                 9.049530583086168E+10,      /* I =144 */
(PID.TID 0000.0001)                 9.083293515008307E+10,      /* I =145 */
(PID.TID 0000.0001)                 9.049530583087070E+10,      /* I =146 */
(PID.TID 0000.0001)                 8.948571540391121E+10,      /* I =147 */
(PID.TID 0000.0001)                 8.781353403174185E+10,      /* I =148 */
(PID.TID 0000.0001)                 8.549360686467184E+10,      /* I =149 */
(PID.TID 0000.0001)                 8.254500894890933E+10,      /* I =150 */
(PID.TID 0000.0001)                 7.898934631434262E+10,      /* I =151 */
(PID.TID 0000.0001)                 7.484854821844795E+10,      /* I =152 */
(PID.TID 0000.0001)                 7.014205907742783E+10,      /* I =153 */
(PID.TID 0000.0001)                 6.488320895111514E+10,      /* I =154 */
(PID.TID 0000.0001)                 5.907428494299063E+10,      /* I =155 */
(PID.TID 0000.0001)                 5.269930713599078E+10,      /* I =156 */
(PID.TID 0000.0001)                 4.571243814190767E+10,      /* I =157 */
(PID.TID 0000.0001)                 3.801790263325260E+10,      /* I =158 */
(PID.TID 0000.0001)                 2.943712825251114E+10,      /* I =159 */
(PID.TID 0000.0001)                 1.974052138509018E+10,      /* I =160 */
(PID.TID 0000.0001)                 1.216690346714270E+10,      /* I =161 */
(PID.TID 0000.0001)                 1.974052138506315E+10,      /* I =162 */
(PID.TID 0000.0001)                 2.943712825252015E+10,      /* I =163 */
(PID.TID 0000.0001)                 3.801790263324359E+10,      /* I =164 */
(PID.TID 0000.0001)                 4.571243814189866E+10,      /* I =165 */
(PID.TID 0000.0001)                 5.269930713599979E+10,      /* I =166 */
(PID.TID 0000.0001)                 5.907428494299063E+10,      /* I =167 */
(PID.TID 0000.0001)                 6.488320895111514E+10,      /* I =168 */
(PID.TID 0000.0001)                 7.014205907741882E+10,      /* I =169 */
(PID.TID 0000.0001)                 7.484854821847499E+10,      /* I =170 */
(PID.TID 0000.0001)                 7.898934631431560E+10,      /* I =171 */
(PID.TID 0000.0001)                 8.254500894894537E+10,      /* I =172 */
(PID.TID 0000.0001)                 8.549360686473492E+10,      /* I =173 */
(PID.TID 0000.0001)                 8.781353403175085E+10,      /* I =174 */
(PID.TID 0000.0001)                 8.948571540392021E+10,      /* I =175 */
(PID.TID 0000.0001)                 9.049530583086168E+10,      /* I =176 */
(PID.TID 0000.0001)                 9.083293515008307E+10,      /* I =177 */
(PID.TID 0000.0001)                 9.049530583087070E+10,      /* I =178 */
(PID.TID 0000.0001)                 8.948571540391121E+10,      /* I =179 */
(PID.TID 0000.0001)                 8.781353403174185E+10,      /* I =180 */
(PID.TID 0000.0001)                 8.549360686467184E+10,      /* I =181 */
(PID.TID 0000.0001)                 8.254500894890933E+10,      /* I =182 */
(PID.TID 0000.0001)                 7.898934631434262E+10,      /* I =183 */
(PID.TID 0000.0001)                 7.484854821844795E+10,      /* I =184 */
(PID.TID 0000.0001)                 7.014205907742783E+10,      /* I =185 */
(PID.TID 0000.0001)                 6.488320895111514E+10,      /* I =186 */
(PID.TID 0000.0001)                 5.907428494299063E+10,      /* I =187 */
(PID.TID 0000.0001)                 5.269930713599078E+10,      /* I =188 */
(PID.TID 0000.0001)                 4.571243814190767E+10,      /* I =189 */
(PID.TID 0000.0001)                 3.801790263325260E+10,      /* I =190 */
(PID.TID 0000.0001)                 2.943712825251114E+10,      /* I =191 */
(PID.TID 0000.0001)                 1.974052138509018E+10       /* I =192 */
(PID.TID 0000.0001)     ;
(PID.TID 0000.0001) rAw =  /* rAw(1,:,1,:) ( m - cartesian, degrees - spherical ) */
(PID.TID 0000.0001)                 1.216690346714270E+10,      /* J =  1 */
(PID.TID 0000.0001)                 2.390126200743558E+10,      /* J =  2 */
(PID.TID 0000.0001)                 3.341968103208270E+10,      /* J =  3 */
(PID.TID 0000.0001)                 4.168532893152940E+10,      /* J =  4 */
(PID.TID 0000.0001)                 4.909074590409593E+10,      /* J =  5 */
(PID.TID 0000.0001)                 5.581203765722643E+10,      /* J =  6 */
(PID.TID 0000.0001)                 6.193257577506788E+10,      /* J =  7 */
(PID.TID 0000.0001)                 6.748840226738273E+10,      /* J =  8 */
(PID.TID 0000.0001)                 7.248875782324815E+10,      /* J =  9 */
(PID.TID 0000.0001)                 7.692702995909871E+10,      /* J = 10 */
(PID.TID 0000.0001)                 8.078743937057304E+10,      /* J = 11 */
(PID.TID 0000.0001)                 8.404959656062837E+10,      /* J = 12 */
(PID.TID 0000.0001)                 8.669186205742538E+10,      /* J = 13 */
(PID.TID 0000.0001)                 8.869393350723613E+10,      /* J = 14 */
(PID.TID 0000.0001)                 9.003884657168852E+10,      /* J = 15 */
(PID.TID 0000.0001)     2 @  9.071447638299399E+10,             /* J = 16: 17 */
(PID.TID 0000.0001)                 9.003884657168852E+10,      /* J = 18 */
(PID.TID 0000.0001)                 8.869393350723613E+10,      /* J = 19 */
(PID.TID 0000.0001)                 8.669186205742538E+10,      /* J = 20 */
(PID.TID 0000.0001)                 8.404959656062837E+10,      /* J = 21 */
(PID.TID 0000.0001)                 8.078743937057304E+10,      /* J = 22 */
(PID.TID 0000.0001)                 7.692702995909871E+10,      /* J = 23 */
(PID.TID 0000.0001)                 7.248875782324815E+10,      /* J = 24 */
(PID.TID 0000.0001)                 6.748840226738273E+10,      /* J = 25 */
(PID.TID 0000.0001)                 6.193257577506788E+10,      /* J = 26 */
(PID.TID 0000.0001)                 5.581203765722643E+10,      /* J = 27 */
(PID.TID 0000.0001)                 4.909074590409593E+10,      /* J = 28 */
(PID.TID 0000.0001)                 4.168532893152940E+10,      /* J = 29 */
(PID.TID 0000.0001)                 3.341968103208270E+10,      /* J = 30 */
(PID.TID 0000.0001)                 2.390126200743558E+10,      /* J = 31 */
(PID.TID 0000.0001)                 1.216690346714270E+10       /* J = 32 */
(PID.TID 0000.0001)     ;
(PID.TID 0000.0001) rAs =  /* rAs(:,1,:,1) ( m - cartesian, degrees - spherical ) */
(PID.TID 0000.0001)                 1.216690346714270E+10,      /* I =  1 */
(PID.TID 0000.0001)                 2.390126200743558E+10,      /* I =  2 */
(PID.TID 0000.0001)                 3.341968103208270E+10,      /* I =  3 */
(PID.TID 0000.0001)                 4.168532893152940E+10,      /* I =  4 */
(PID.TID 0000.0001)                 4.909074590409593E+10,      /* I =  5 */
(PID.TID 0000.0001)                 5.581203765722643E+10,      /* I =  6 */
(PID.TID 0000.0001)                 6.193257577506788E+10,      /* I =  7 */
(PID.TID 0000.0001)                 6.748840226738273E+10,      /* I =  8 */
(PID.TID 0000.0001)                 7.248875782324815E+10,      /* I =  9 */
(PID.TID 0000.0001)                 7.692702995909871E+10,      /* I = 10 */
(PID.TID 0000.0001)                 8.078743937057304E+10,      /* I = 11 */
(PID.TID 0000.0001)                 8.404959656062837E+10,      /* I = 12 */
(PID.TID 0000.0001)                 8.669186205742538E+10,      /* I = 13 */
(PID.TID 0000.0001)                 8.869393350723613E+10,      /* I = 14 */
(PID.TID 0000.0001)                 9.003884657168852E+10,      /* I = 15 */
(PID.TID 0000.0001)     2 @  9.071447638299399E+10,             /* I = 16: 17 */
(PID.TID 0000.0001)                 9.003884657168852E+10,      /* I = 18 */
(PID.TID 0000.0001)                 8.869393350723613E+10,      /* I = 19 */
(PID.TID 0000.0001)                 8.669186205742538E+10,      /* I = 20 */
(PID.TID 0000.0001)                 8.404959656062837E+10,      /* I = 21 */
(PID.TID 0000.0001)                 8.078743937057304E+10,      /* I = 22 */
(PID.TID 0000.0001)                 7.692702995909871E+10,      /* I = 23 */
(PID.TID 0000.0001)                 7.248875782324815E+10,      /* I = 24 */
(PID.TID 0000.0001)                 6.748840226738273E+10,      /* I = 25 */
(PID.TID 0000.0001)                 6.193257577506788E+10,      /* I = 26 */
(PID.TID 0000.0001)                 5.581203765722643E+10,      /* I = 27 */
(PID.TID 0000.0001)                 4.909074590409593E+10,      /* I = 28 */
(PID.TID 0000.0001)                 4.168532893152940E+10,      /* I = 29 */
(PID.TID 0000.0001)                 3.341968103208270E+10,      /* I = 30 */
(PID.TID 0000.0001)                 2.390126200743558E+10,      /* I = 31 */
(PID.TID 0000.0001)     2 @  1.216690346714270E+10,             /* I = 32: 33 */
(PID.TID 0000.0001)                 2.390126200743558E+10,      /* I = 34 */
(PID.TID 0000.0001)                 3.341968103208270E+10,      /* I = 35 */
(PID.TID 0000.0001)                 4.168532893152940E+10,      /* I = 36 */
(PID.TID 0000.0001)                 4.909074590409593E+10,      /* I = 37 */
(PID.TID 0000.0001)                 5.581203765722643E+10,      /* I = 38 */
(PID.TID 0000.0001)                 6.193257577506788E+10,      /* I = 39 */
(PID.TID 0000.0001)                 6.748840226738273E+10,      /* I = 40 */
(PID.TID 0000.0001)                 7.248875782324815E+10,      /* I = 41 */
(PID.TID 0000.0001)                 7.692702995909871E+10,      /* I = 42 */
(PID.TID 0000.0001)                 8.078743937057304E+10,      /* I = 43 */
(PID.TID 0000.0001)                 8.404959656062837E+10,      /* I = 44 */
(PID.TID 0000.0001)                 8.669186205742538E+10,      /* I = 45 */
(PID.TID 0000.0001)                 8.869393350723613E+10,      /* I = 46 */
(PID.TID 0000.0001)                 9.003884657168852E+10,      /* I = 47 */
(PID.TID 0000.0001)     2 @  9.071447638299399E+10,             /* I = 48: 49 */
(PID.TID 0000.0001)                 9.003884657168852E+10,      /* I = 50 */
(PID.TID 0000.0001)                 8.869393350723613E+10,      /* I = 51 */
(PID.TID 0000.0001)                 8.669186205742538E+10,      /* I = 52 */
(PID.TID 0000.0001)                 8.404959656062837E+10,      /* I = 53 */
(PID.TID 0000.0001)                 8.078743937057304E+10,      /* I = 54 */
(PID.TID 0000.0001)                 7.692702995909871E+10,      /* I = 55 */
(PID.TID 0000.0001)                 7.248875782324815E+10,      /* I = 56 */
(PID.TID 0000.0001)                 6.748840226738273E+10,      /* I = 57 */
(PID.TID 0000.0001)                 6.193257577506788E+10,      /* I = 58 */
(PID.TID 0000.0001)                 5.581203765722643E+10,      /* I = 59 */
(PID.TID 0000.0001)                 4.909074590409593E+10,      /* I = 60 */
(PID.TID 0000.0001)                 4.168532893152940E+10,      /* I = 61 */
(PID.TID 0000.0001)                 3.341968103208270E+10,      /* I = 62 */
(PID.TID 0000.0001)                 2.390126200743558E+10,      /* I = 63 */
(PID.TID 0000.0001)     2 @  1.216690346714270E+10,             /* I = 64: 65 */
(PID.TID 0000.0001)                 2.390126200743558E+10,      /* I = 66 */
(PID.TID 0000.0001)                 3.341968103208270E+10,      /* I = 67 */
(PID.TID 0000.0001)                 4.168532893152940E+10,      /* I = 68 */
(PID.TID 0000.0001)                 4.909074590409593E+10,      /* I = 69 */
(PID.TID 0000.0001)                 5.581203765722643E+10,      /* I = 70 */
(PID.TID 0000.0001)                 6.193257577506788E+10,      /* I = 71 */
(PID.TID 0000.0001)                 6.748840226738273E+10,      /* I = 72 */
(PID.TID 0000.0001)                 7.248875782324815E+10,      /* I = 73 */
(PID.TID 0000.0001)                 7.692702995909871E+10,      /* I = 74 */
(PID.TID 0000.0001)                 8.078743937057304E+10,      /* I = 75 */
(PID.TID 0000.0001)                 8.404959656062837E+10,      /* I = 76 */
(PID.TID 0000.0001)                 8.669186205742538E+10,      /* I = 77 */
(PID.TID 0000.0001)                 8.869393350723613E+10,      /* I = 78 */
(PID.TID 0000.0001)                 9.003884657168852E+10,      /* I = 79 */
(PID.TID 0000.0001)     2 @  9.071447638299399E+10,             /* I = 80: 81 */
(PID.TID 0000.0001)                 9.003884657168852E+10,      /* I = 82 */
(PID.TID 0000.0001)                 8.869393350723613E+10,      /* I = 83 */
(PID.TID 0000.0001)                 8.669186205742538E+10,      /* I = 84 */
(PID.TID 0000.0001)                 8.404959656062837E+10,      /* I = 85 */
(PID.TID 0000.0001)                 8.078743937057304E+10,      /* I = 86 */
(PID.TID 0000.0001)                 7.692702995909871E+10,      /* I = 87 */
(PID.TID 0000.0001)                 7.248875782324815E+10,      /* I = 88 */
(PID.TID 0000.0001)                 6.748840226738273E+10,      /* I = 89 */
(PID.TID 0000.0001)                 6.193257577506788E+10,      /* I = 90 */
(PID.TID 0000.0001)                 5.581203765722643E+10,      /* I = 91 */
(PID.TID 0000.0001)                 4.909074590409593E+10,      /* I = 92 */
(PID.TID 0000.0001)                 4.168532893152940E+10,      /* I = 93 */
(PID.TID 0000.0001)                 3.341968103208270E+10,      /* I = 94 */
(PID.TID 0000.0001)                 2.390126200743558E+10,      /* I = 95 */
(PID.TID 0000.0001)     2 @  1.216690346714270E+10,             /* I = 96: 97 */
(PID.TID 0000.0001)                 2.390126200743558E+10,      /* I = 98 */
(PID.TID 0000.0001)                 3.341968103208270E+10,      /* I = 99 */
(PID.TID 0000.0001)                 4.168532893152940E+10,      /* I =100 */
(PID.TID 0000.0001)                 4.909074590409593E+10,      /* I =101 */
(PID.TID 0000.0001)                 5.581203765722643E+10,      /* I =102 */
(PID.TID 0000.0001)                 6.193257577506788E+10,      /* I =103 */
(PID.TID 0000.0001)                 6.748840226738273E+10,      /* I =104 */
(PID.TID 0000.0001)                 7.248875782324815E+10,      /* I =105 */
(PID.TID 0000.0001)                 7.692702995909871E+10,      /* I =106 */
(PID.TID 0000.0001)                 8.078743937057304E+10,      /* I =107 */
(PID.TID 0000.0001)                 8.404959656062837E+10,      /* I =108 */
(PID.TID 0000.0001)                 8.669186205742538E+10,      /* I =109 */
(PID.TID 0000.0001)                 8.869393350723613E+10,      /* I =110 */
(PID.TID 0000.0001)                 9.003884657168852E+10,      /* I =111 */
(PID.TID 0000.0001)     2 @  9.071447638299399E+10,             /* I =112:113 */
(PID.TID 0000.0001)                 9.003884657168852E+10,      /* I =114 */
(PID.TID 0000.0001)                 8.869393350723613E+10,      /* I =115 */
(PID.TID 0000.0001)                 8.669186205742538E+10,      /* I =116 */
(PID.TID 0000.0001)                 8.404959656062837E+10,      /* I =117 */
(PID.TID 0000.0001)                 8.078743937057304E+10,      /* I =118 */
(PID.TID 0000.0001)                 7.692702995909871E+10,      /* I =119 */
(PID.TID 0000.0001)                 7.248875782324815E+10,      /* I =120 */
(PID.TID 0000.0001)                 6.748840226738273E+10,      /* I =121 */
(PID.TID 0000.0001)                 6.193257577506788E+10,      /* I =122 */
(PID.TID 0000.0001)                 5.581203765722643E+10,      /* I =123 */
(PID.TID 0000.0001)                 4.909074590409593E+10,      /* I =124 */
(PID.TID 0000.0001)                 4.168532893152940E+10,      /* I =125 */
(PID.TID 0000.0001)                 3.341968103208270E+10,      /* I =126 */
(PID.TID 0000.0001)                 2.390126200743558E+10,      /* I =127 */
(PID.TID 0000.0001)     2 @  1.216690346714270E+10,             /* I =128:129 */
(PID.TID 0000.0001)                 2.390126200743558E+10,      /* I =130 */
(PID.TID 0000.0001)                 3.341968103208270E+10,      /* I =131 */
(PID.TID 0000.0001)                 4.168532893152940E+10,      /* I =132 */
(PID.TID 0000.0001)                 4.909074590409593E+10,      /* I =133 */
(PID.TID 0000.0001)                 5.581203765722643E+10,      /* I =134 */
(PID.TID 0000.0001)                 6.193257577506788E+10,      /* I =135 */
(PID.TID 0000.0001)                 6.748840226738273E+10,      /* I =136 */
(PID.TID 0000.0001)                 7.248875782324815E+10,      /* I =137 */
(PID.TID 0000.0001)                 7.692702995909871E+10,      /* I =138 */
(PID.TID 0000.0001)                 8.078743937057304E+10,      /* I =139 */
(PID.TID 0000.0001)                 8.404959656062837E+10,      /* I =140 */
(PID.TID 0000.0001)                 8.669186205742538E+10,      /* I =141 */
(PID.TID 0000.0001)                 8.869393350723613E+10,      /* I =142 */
(PID.TID 0000.0001)                 9.003884657168852E+10,      /* I =143 */
(PID.TID 0000.0001)     2 @  9.071447638299399E+10,             /* I =144:145 */
(PID.TID 0000.0001)                 9.003884657168852E+10,      /* I =146 */
(PID.TID 0000.0001)                 8.869393350723613E+10,      /* I =147 */
(PID.TID 0000.0001)                 8.669186205742538E+10,      /* I =148 */
(PID.TID 0000.0001)                 8.404959656062837E+10,      /* I =149 */
(PID.TID 0000.0001)                 8.078743937057304E+10,      /* I =150 */
(PID.TID 0000.0001)                 7.692702995909871E+10,      /* I =151 */
(PID.TID 0000.0001)                 7.248875782324815E+10,      /* I =152 */
(PID.TID 0000.0001)                 6.748840226738273E+10,      /* I =153 */
(PID.TID 0000.0001)                 6.193257577506788E+10,      /* I =154 */
(PID.TID 0000.0001)                 5.581203765722643E+10,      /* I =155 */
(PID.TID 0000.0001)                 4.909074590409593E+10,      /* I =156 */
(PID.TID 0000.0001)                 4.168532893152940E+10,      /* I =157 */
(PID.TID 0000.0001)                 3.341968103208270E+10,      /* I =158 */
(PID.TID 0000.0001)                 2.390126200743558E+10,      /* I =159 */
(PID.TID 0000.0001)     2 @  1.216690346714270E+10,             /* I =160:161 */
(PID.TID 0000.0001)                 2.390126200743558E+10,      /* I =162 */
(PID.TID 0000.0001)                 3.341968103208270E+10,      /* I =163 */
(PID.TID 0000.0001)                 4.168532893152940E+10,      /* I =164 */
(PID.TID 0000.0001)                 4.909074590409593E+10,      /* I =165 */
(PID.TID 0000.0001)                 5.581203765722643E+10,      /* I =166 */
(PID.TID 0000.0001)                 6.193257577506788E+10,      /* I =167 */
(PID.TID 0000.0001)                 6.748840226738273E+10,      /* I =168 */
(PID.TID 0000.0001)                 7.248875782324815E+10,      /* I =169 */
(PID.TID 0000.0001)                 7.692702995909871E+10,      /* I =170 */
(PID.TID 0000.0001)                 8.078743937057304E+10,      /* I =171 */
(PID.TID 0000.0001)                 8.404959656062837E+10,      /* I =172 */
(PID.TID 0000.0001)                 8.669186205742538E+10,      /* I =173 */
(PID.TID 0000.0001)                 8.869393350723613E+10,      /* I =174 */
(PID.TID 0000.0001)                 9.003884657168852E+10,      /* I =175 */
(PID.TID 0000.0001)     2 @  9.071447638299399E+10,             /* I =176:177 */
(PID.TID 0000.0001)                 9.003884657168852E+10,      /* I =178 */
(PID.TID 0000.0001)                 8.869393350723613E+10,      /* I =179 */
(PID.TID 0000.0001)                 8.669186205742538E+10,      /* I =180 */
(PID.TID 0000.0001)                 8.404959656062837E+10,      /* I =181 */
(PID.TID 0000.0001)                 8.078743937057304E+10,      /* I =182 */
(PID.TID 0000.0001)                 7.692702995909871E+10,      /* I =183 */
(PID.TID 0000.0001)                 7.248875782324815E+10,      /* I =184 */
(PID.TID 0000.0001)                 6.748840226738273E+10,      /* I =185 */
(PID.TID 0000.0001)                 6.193257577506788E+10,      /* I =186 */
(PID.TID 0000.0001)                 5.581203765722643E+10,      /* I =187 */
(PID.TID 0000.0001)                 4.909074590409593E+10,      /* I =188 */
(PID.TID 0000.0001)                 4.168532893152940E+10,      /* I =189 */
(PID.TID 0000.0001)                 3.341968103208270E+10,      /* I =190 */
(PID.TID 0000.0001)                 2.390126200743558E+10,      /* I =191 */
(PID.TID 0000.0001)                 1.216690346714270E+10       /* I =192 */
(PID.TID 0000.0001)     ;
(PID.TID 0000.0001) rAs =  /* rAs(1,:,1,:) ( m - cartesian, degrees - spherical ) */
(PID.TID 0000.0001)                 1.216690346714270E+10,      /* J =  1 */
(PID.TID 0000.0001)                 1.974052138506315E+10,      /* J =  2 */
(PID.TID 0000.0001)                 2.943712825252015E+10,      /* J =  3 */
(PID.TID 0000.0001)                 3.801790263324359E+10,      /* J =  4 */
(PID.TID 0000.0001)                 4.571243814189866E+10,      /* J =  5 */
(PID.TID 0000.0001)                 5.269930713599979E+10,      /* J =  6 */
(PID.TID 0000.0001)                 5.907428494299063E+10,      /* J =  7 */
(PID.TID 0000.0001)                 6.488320895111514E+10,      /* J =  8 */
(PID.TID 0000.0001)                 7.014205907741882E+10,      /* J =  9 */
(PID.TID 0000.0001)                 7.484854821847499E+10,      /* J = 10 */
(PID.TID 0000.0001)                 7.898934631431560E+10,      /* J = 11 */
(PID.TID 0000.0001)                 8.254500894894537E+10,      /* J = 12 */
(PID.TID 0000.0001)                 8.549360686473492E+10,      /* J = 13 */
(PID.TID 0000.0001)                 8.781353403175085E+10,      /* J = 14 */
(PID.TID 0000.0001)                 8.948571540392021E+10,      /* J = 15 */
(PID.TID 0000.0001)                 9.049530583086168E+10,      /* J = 16 */
(PID.TID 0000.0001)                 9.083293515008307E+10,      /* J = 17 */
(PID.TID 0000.0001)                 9.049530583087070E+10,      /* J = 18 */
(PID.TID 0000.0001)                 8.948571540391121E+10,      /* J = 19 */
(PID.TID 0000.0001)                 8.781353403174185E+10,      /* J = 20 */
(PID.TID 0000.0001)                 8.549360686467184E+10,      /* J = 21 */
(PID.TID 0000.0001)                 8.254500894890933E+10,      /* J = 22 */
(PID.TID 0000.0001)                 7.898934631434262E+10,      /* J = 23 */
(PID.TID 0000.0001)                 7.484854821844795E+10,      /* J = 24 */
(PID.TID 0000.0001)                 7.014205907742783E+10,      /* J = 25 */
(PID.TID 0000.0001)                 6.488320895111514E+10,      /* J = 26 */
(PID.TID 0000.0001)                 5.907428494299063E+10,      /* J = 27 */
(PID.TID 0000.0001)                 5.269930713599078E+10,      /* J = 28 */
(PID.TID 0000.0001)                 4.571243814190767E+10,      /* J = 29 */
(PID.TID 0000.0001)                 3.801790263325260E+10,      /* J = 30 */
(PID.TID 0000.0001)                 2.943712825251114E+10,      /* J = 31 */
(PID.TID 0000.0001)                 1.974052138509018E+10       /* J = 32 */
(PID.TID 0000.0001)     ;
(PID.TID 0000.0001) 
(PID.TID 0000.0001)  MDSREADFIELD: opening global file: T.init
(PID.TID 0000.0001) // =======================================================
(PID.TID 0000.0001) // Field Initial Temperature at iteration          1
(PID.TID 0000.0001) // CMIN =          1.000000000000000E+00
(PID.TID 0000.0001) // CMAX =          1.965003298207243E+00
(PID.TID 0000.0001) // CINT =          3.574086289656456E-02
(PID.TID 0000.0001) // SYMBOLS (CMIN->CMAX): -abcdefghijklmnopqrstuvwxyz+
(PID.TID 0000.0001) //                  0.0: .
(PID.TID 0000.0001) // RANGE I (Lo:Hi:Step):(   1: 192:   1)
(PID.TID 0000.0001) // RANGE J (Lo:Hi:Step):(  32:   1:  -1)
(PID.TID 0000.0001) // RANGE K (Lo:Hi:Step):(   1:   1:   1)
(PID.TID 0000.0001) // =======================================================
(PID.TID 0000.0001) K =   1
(PID.TID 0000.0001)                I=10      I=20      I=30      I=40      I=50      I=60      I=70      I=80      I=90      I=100     I=110     I=120     I=130     I=140     I=150     I=160     I=170     I=180     I=190
(PID.TID 0000.0001) |--J--|123456789|123456789|123456789|123456789|123456789|123456789|123456789|123456789|123456789|123456789|123456789|123456789|123456789|123456789|123456789|123456789|123456789|123456789|123456789|12
(PID.TID 0000.0001)     32 ------------------------------------------------------------------------------------------------------------------------------------------------------------------------------------------------
(PID.TID 0000.0001)     31 ------------------------------------------------------------------------------------------------------------------------------------------------------------------------------------------------
(PID.TID 0000.0001)     30 ------------------------------------------------------------------------------------------------------------------------------------------------------------------------------------------------
(PID.TID 0000.0001)     29 ------------------------------------------------------------------------------------------------------------------------------------------------------------------------------------------------
(PID.TID 0000.0001)     28 ------------------------------------------------------------------------------------------------------------------------------------------------------------------------------------------------
(PID.TID 0000.0001)     27 ------------------------------------------------------------------------------------------------------------------------------------------------------------------------------------------------
(PID.TID 0000.0001)     26 ------------------------------------------------------------------------------------------------------------------------------------------------------------------------------------------------
(PID.TID 0000.0001)     25 ------------------------------------------------------------------------------------------------------------------------------------------------------------------------------------------------
(PID.TID 0000.0001)     24 ------------------------------------------------------------------------------------------------------------------------------------------------------------------------------------------------
(PID.TID 0000.0001)     23 ------------------------------------------------------------------------------------------------------------------------------------------------------------------------------------------------
(PID.TID 0000.0001)     22 ------------------------------------------------------------------------------------------------------------------------------------------------------------------------------------------------
(PID.TID 0000.0001)     21 ---------------------------------------------acddca---------------------------------------------------------------------------------------------------------------------------------------------
(PID.TID 0000.0001)     20 --------------------------------------------behjjheb--------------------------------------------------------------------------------------------------------------------------------------------
(PID.TID 0000.0001)     19 -------------------------------------------aejnqqnjea-------------------------------------------------------------------------------------------------------------------------------------------
(PID.TID 0000.0001)     18 -------------------------------------------chntwwtnhc-------------------------------------------------------------------------------------------------------------------------------------------
(PID.TID 0000.0001)     17 -------------------------------------------djqw++wqjd-------------------------------------------------------------------------------------------------------------------------------------------
(PID.TID 0000.0001)     16 -------------------------------------------djqw++wqjd-------------------------------------------------------------------------------------------------------------------------------------------
(PID.TID 0000.0001)     15 -------------------------------------------chntwwtnhc-------------------------------------------------------------------------------------------------------------------------------------------
(PID.TID 0000.0001)     14 -------------------------------------------aejnqqnjea-------------------------------------------------------------------------------------------------------------------------------------------
(PID.TID 0000.0001)     13 --------------------------------------------behjjheb--------------------------------------------------------------------------------------------------------------------------------------------
(PID.TID 0000.0001)     12 ---------------------------------------------acddca---------------------------------------------------------------------------------------------------------------------------------------------
(PID.TID 0000.0001)     11 ------------------------------------------------------------------------------------------------------------------------------------------------------------------------------------------------
(PID.TID 0000.0001)     10 ------------------------------------------------------------------------------------------------------------------------------------------------------------------------------------------------
(PID.TID 0000.0001)      9 ------------------------------------------------------------------------------------------------------------------------------------------------------------------------------------------------
(PID.TID 0000.0001)      8 ------------------------------------------------------------------------------------------------------------------------------------------------------------------------------------------------
(PID.TID 0000.0001)      7 ------------------------------------------------------------------------------------------------------------------------------------------------------------------------------------------------
(PID.TID 0000.0001)      6 ------------------------------------------------------------------------------------------------------------------------------------------------------------------------------------------------
(PID.TID 0000.0001)      5 ------------------------------------------------------------------------------------------------------------------------------------------------------------------------------------------------
(PID.TID 0000.0001)      4 ------------------------------------------------------------------------------------------------------------------------------------------------------------------------------------------------
(PID.TID 0000.0001)      3 ------------------------------------------------------------------------------------------------------------------------------------------------------------------------------------------------
(PID.TID 0000.0001)      2 ------------------------------------------------------------------------------------------------------------------------------------------------------------------------------------------------
(PID.TID 0000.0001)      1 ------------------------------------------------------------------------------------------------------------------------------------------------------------------------------------------------
(PID.TID 0000.0001) // =======================================================
(PID.TID 0000.0001) // END OF FIELD                                          =
(PID.TID 0000.0001) // =======================================================
(PID.TID 0000.0001) 
(PID.TID 0000.0001)  MDSREADFIELD: opening global file: S.init
(PID.TID 0000.0001) // =======================================================
(PID.TID 0000.0001) // Field Initial Salinity at iteration          1
(PID.TID 0000.0001) // CMIN =          1.000000000000000E+00
(PID.TID 0000.0001) // CMAX =          1.982522377677747E+00
(PID.TID 0000.0001) // CINT =          3.638971769176839E-02
(PID.TID 0000.0001) // SYMBOLS (CMIN->CMAX): -abcdefghijklmnopqrstuvwxyz+
(PID.TID 0000.0001) //                  0.0: .
(PID.TID 0000.0001) // RANGE I (Lo:Hi:Step):(   1: 192:   1)
(PID.TID 0000.0001) // RANGE J (Lo:Hi:Step):(  32:   1:  -1)
(PID.TID 0000.0001) // RANGE K (Lo:Hi:Step):(   1:   1:   1)
(PID.TID 0000.0001) // =======================================================
(PID.TID 0000.0001) K =   1
(PID.TID 0000.0001)                I=10      I=20      I=30      I=40      I=50      I=60      I=70      I=80      I=90      I=100     I=110     I=120     I=130     I=140     I=150     I=160     I=170     I=180     I=190
(PID.TID 0000.0001) |--J--|123456789|123456789|123456789|123456789|123456789|123456789|123456789|123456789|123456789|123456789|123456789|123456789|123456789|123456789|123456789|123456789|123456789|123456789|123456789|12
(PID.TID 0000.0001)     32 ------------------------------------------------------------------------------------------------------------------------------------------------------------------------------------------------
(PID.TID 0000.0001)     31 ------------------------------------------------------------------------------------------------------------------------------------------------------------------------------------------------
(PID.TID 0000.0001)     30 ------------------------------------------------------------------------------------------------------------------------------------------------------------------------------------------------
(PID.TID 0000.0001)     29 ------------------------------------------------------------------------------------------------------------------------------------------------------------------------------------------------
(PID.TID 0000.0001)     28 ------------------------------------------------------------------------------------------------------------------------------------------------------------------------------------------------
(PID.TID 0000.0001)     27 ------------------------------------------------------------------------------------------------------------------------------------------------------------------------------------------------
(PID.TID 0000.0001)     26 ------------------------------------------------------------------------------------------------------------------------------------------------------------------------------------------------
(PID.TID 0000.0001)     25 ------------------------------------------------------------------------------------------------------------------------------------------------------------------------------------------------
(PID.TID 0000.0001)     24 ------------------------------------------------------------------------------------------------------------------------------------------------------------------------------------------------
(PID.TID 0000.0001)     23 ------------------------------------------------------------------------------------------------------------------------------------------------------------------------------------------------
(PID.TID 0000.0001)     22 --------------------------------------------------------------------------------------------------aaaa------------------------------------------------------------------------------------------
(PID.TID 0000.0001)     21 ------------------------------------------------------------------------------------------------aceeedb-----------------------------------------------------------------------------------------
(PID.TID 0000.0001)     20 -----------------------------------------------------------------------------------------------adhjkkheb----------------------------------------------------------------------------------------
(PID.TID 0000.0001)     19 ----------------------------------------------------------------------------------------------adhmprqniea---------------------------------------------------------------------------------------
(PID.TID 0000.0001)     18 ----------------------------------------------------------------------------------------------bfkqvxwsmgb---------------------------------------------------------------------------------------
(PID.TID 0000.0001)     17 ----------------------------------------------------------------------------------------------bgmty+zvoic---------------------------------------------------------------------------------------
(PID.TID 0000.0001)     16 ----------------------------------------------------------------------------------------------bgmty+zvoic---------------------------------------------------------------------------------------
(PID.TID 0000.0001)     15 ----------------------------------------------------------------------------------------------bfkqvxwsmgb---------------------------------------------------------------------------------------
(PID.TID 0000.0001)     14 ----------------------------------------------------------------------------------------------adhmprqniea---------------------------------------------------------------------------------------
(PID.TID 0000.0001)     13 -----------------------------------------------------------------------------------------------adhjkkheb----------------------------------------------------------------------------------------
(PID.TID 0000.0001)     12 ------------------------------------------------------------------------------------------------aceeedb-----------------------------------------------------------------------------------------
(PID.TID 0000.0001)     11 --------------------------------------------------------------------------------------------------aaaa------------------------------------------------------------------------------------------
(PID.TID 0000.0001)     10 ------------------------------------------------------------------------------------------------------------------------------------------------------------------------------------------------
(PID.TID 0000.0001)      9 ------------------------------------------------------------------------------------------------------------------------------------------------------------------------------------------------
(PID.TID 0000.0001)      8 ------------------------------------------------------------------------------------------------------------------------------------------------------------------------------------------------
(PID.TID 0000.0001)      7 ------------------------------------------------------------------------------------------------------------------------------------------------------------------------------------------------
(PID.TID 0000.0001)      6 ------------------------------------------------------------------------------------------------------------------------------------------------------------------------------------------------
(PID.TID 0000.0001)      5 ------------------------------------------------------------------------------------------------------------------------------------------------------------------------------------------------
(PID.TID 0000.0001)      4 ------------------------------------------------------------------------------------------------------------------------------------------------------------------------------------------------
(PID.TID 0000.0001)      3 ------------------------------------------------------------------------------------------------------------------------------------------------------------------------------------------------
(PID.TID 0000.0001)      2 ------------------------------------------------------------------------------------------------------------------------------------------------------------------------------------------------
(PID.TID 0000.0001)      1 ------------------------------------------------------------------------------------------------------------------------------------------------------------------------------------------------
(PID.TID 0000.0001) // =======================================================
(PID.TID 0000.0001) // END OF FIELD                                          =
(PID.TID 0000.0001) // =======================================================
(PID.TID 0000.0001) 
(PID.TID 0000.0001) Start initial hydrostatic pressure computation
(PID.TID 0000.0001) Pressure is predetermined for buoyancyRelation OCEANIC
(PID.TID 0000.0001) 
(PID.TID 0000.0001) // =======================================================
(PID.TID 0000.0001) // Model current state
(PID.TID 0000.0001) // =======================================================
(PID.TID 0000.0001) 
(PID.TID 0000.0001) // =======================================================
(PID.TID 0000.0001) // Begin MONITOR dynamic field statistics
(PID.TID 0000.0001) // =======================================================
(PID.TID 0000.0001) %MON time_tsnumber                =                     0
(PID.TID 0000.0001) %MON time_secondsf                =   0.0000000000000E+00
(PID.TID 0000.0001) %MON dynstat_eta_max              =   0.0000000000000E+00
(PID.TID 0000.0001) %MON dynstat_eta_min              =   0.0000000000000E+00
(PID.TID 0000.0001) %MON dynstat_eta_mean             =   0.0000000000000E+00
(PID.TID 0000.0001) %MON dynstat_eta_sd               =   0.0000000000000E+00
(PID.TID 0000.0001) %MON dynstat_eta_del2             =   0.0000000000000E+00
(PID.TID 0000.0001) %MON dynstat_uvel_max             =   3.8588909729197E+01
(PID.TID 0000.0001) %MON dynstat_uvel_min             =  -2.6640751857532E+01
(PID.TID 0000.0001) %MON dynstat_uvel_mean            =   1.1767801879505E+01
(PID.TID 0000.0001) %MON dynstat_uvel_sd              =   1.8925337749668E+01
(PID.TID 0000.0001) %MON dynstat_uvel_del2            =   3.3980387131857E-02
(PID.TID 0000.0001) %MON dynstat_vvel_max             =   3.8588909729197E+01
(PID.TID 0000.0001) %MON dynstat_vvel_min             =  -2.6640751857532E+01
(PID.TID 0000.0001) %MON dynstat_vvel_mean            =   1.1767801879505E+01
(PID.TID 0000.0001) %MON dynstat_vvel_sd              =   1.8925337749668E+01
(PID.TID 0000.0001) %MON dynstat_vvel_del2            =   3.3980387131857E-02
(PID.TID 0000.0001) %MON dynstat_wvel_max             =   6.6736446215327E-15
(PID.TID 0000.0001) %MON dynstat_wvel_min             =  -6.6736446215327E-15
(PID.TID 0000.0001) %MON dynstat_wvel_mean            =   2.3939844639623E-19
(PID.TID 0000.0001) %MON dynstat_wvel_sd              =   1.5089012586666E-15
(PID.TID 0000.0001) %MON dynstat_wvel_del2            =   1.4563361156032E-15
(PID.TID 0000.0001) %MON dynstat_theta_max            =   1.9650032982072E+00
(PID.TID 0000.0001) %MON dynstat_theta_min            =   1.0000000000000E+00
(PID.TID 0000.0001) %MON dynstat_theta_mean           =   1.0066888037826E+00
(PID.TID 0000.0001) %MON dynstat_theta_sd             =   6.1914012152681E-02
(PID.TID 0000.0001) %MON dynstat_theta_del2           =   4.4693376318999E-04
(PID.TID 0000.0001) %MON dynstat_salt_max             =   1.9825223776777E+00
(PID.TID 0000.0001) %MON dynstat_salt_min             =   1.0000000000000E+00
(PID.TID 0000.0001) %MON dynstat_salt_mean            =   1.0066901484881E+00
(PID.TID 0000.0001) %MON dynstat_salt_sd              =   6.1913618073032E-02
(PID.TID 0000.0001) %MON dynstat_salt_del2            =   4.5030586672213E-04
(PID.TID 0000.0001) %MON advcfl_uvel_max              =   1.0240615062181E+00
(PID.TID 0000.0001) %MON advcfl_vvel_max              =   1.0240615062181E+00
(PID.TID 0000.0001) %MON advcfl_wvel_max              =   4.8050241275036E-16
(PID.TID 0000.0001) %MON advcfl_W_hf_max              =   0.0000000000000E+00
(PID.TID 0000.0001) %MON pe_b_mean                    =   0.0000000000000E+00
(PID.TID 0000.0001) %MON ke_max                       =   7.4475958662786E+02
(PID.TID 0000.0001) %MON ke_mean                      =   4.9660795630338E+02
(PID.TID 0000.0001) %MON ke_vol                       =   5.0990436378172E+19
(PID.TID 0000.0001) %MON vort_r_min                   =  -1.2114474455529E-05
(PID.TID 0000.0001) %MON vort_r_max                   =   1.2114474455529E-05
(PID.TID 0000.0001) %MON vort_a_mean                  =   2.4513551737851E-21
(PID.TID 0000.0001) %MON vort_a_sd                    =   9.0967845104703E-05
(PID.TID 0000.0001) %MON vort_p_mean                  =   2.4513551737851E-21
(PID.TID 0000.0001) %MON vort_p_sd                    =   9.0967845104703E-05
(PID.TID 0000.0001) %MON surfExpan_theta_mean         =   2.3939844639622E-19
(PID.TID 0000.0001) %MON surfExpan_salt_mean          =   2.8054244008597E-19
(PID.TID 0000.0001) // =======================================================
(PID.TID 0000.0001) // End MONITOR dynamic field statistics
(PID.TID 0000.0001) // =======================================================
(PID.TID 0000.0001) // =======================================================
(PID.TID 0000.0001) // Begin MONITOR dynamic field statistics
(PID.TID 0000.0001) // =======================================================
(PID.TID 0000.0001) %MON time_tsnumber                =                     6
(PID.TID 0000.0001) %MON time_secondsf                =   2.1600000000000E+04
(PID.TID 0000.0001) %MON dynstat_eta_max              =   0.0000000000000E+00
(PID.TID 0000.0001) %MON dynstat_eta_min              =   0.0000000000000E+00
(PID.TID 0000.0001) %MON dynstat_eta_mean             =   0.0000000000000E+00
(PID.TID 0000.0001) %MON dynstat_eta_sd               =   0.0000000000000E+00
(PID.TID 0000.0001) %MON dynstat_eta_del2             =   0.0000000000000E+00
(PID.TID 0000.0001) %MON dynstat_uvel_max             =   3.8588909729197E+01
(PID.TID 0000.0001) %MON dynstat_uvel_min             =  -2.6640751857532E+01
(PID.TID 0000.0001) %MON dynstat_uvel_mean            =   1.1767801879505E+01
(PID.TID 0000.0001) %MON dynstat_uvel_sd              =   1.8925337749668E+01
(PID.TID 0000.0001) %MON dynstat_uvel_del2            =   3.3980387131857E-02
(PID.TID 0000.0001) %MON dynstat_vvel_max             =   3.8588909729197E+01
(PID.TID 0000.0001) %MON dynstat_vvel_min             =  -2.6640751857532E+01
(PID.TID 0000.0001) %MON dynstat_vvel_mean            =   1.1767801879505E+01
(PID.TID 0000.0001) %MON dynstat_vvel_sd              =   1.8925337749668E+01
(PID.TID 0000.0001) %MON dynstat_vvel_del2            =   3.3980387131857E-02
(PID.TID 0000.0001) %MON dynstat_wvel_max             =   6.6736446215327E-15
(PID.TID 0000.0001) %MON dynstat_wvel_min             =  -6.6736446215327E-15
(PID.TID 0000.0001) %MON dynstat_wvel_mean            =   2.3939844639623E-19
(PID.TID 0000.0001) %MON dynstat_wvel_sd              =   1.5089012586666E-15
(PID.TID 0000.0001) %MON dynstat_wvel_del2            =   1.4563361156032E-15
(PID.TID 0000.0001) %MON dynstat_theta_max            =   1.9599042091609E+00
(PID.TID 0000.0001) %MON dynstat_theta_min            =   9.9994127710741E-01
(PID.TID 0000.0001) %MON dynstat_theta_mean           =   1.0066888037826E+00
(PID.TID 0000.0001) %MON dynstat_theta_sd             =   6.1615783918261E-02
(PID.TID 0000.0001) %MON dynstat_theta_del2           =   4.4711899094321E-04
(PID.TID 0000.0001) %MON dynstat_salt_max             =   1.9763969515326E+00
(PID.TID 0000.0001) %MON dynstat_salt_min             =   9.9989329729948E-01
(PID.TID 0000.0001) %MON dynstat_salt_mean            =   1.0066901484881E+00
(PID.TID 0000.0001) %MON dynstat_salt_sd              =   6.1685681957383E-02
(PID.TID 0000.0001) %MON dynstat_salt_del2            =   4.4823151115273E-04
(PID.TID 0000.0001) %MON advcfl_uvel_max              =   1.0240615062181E+00
(PID.TID 0000.0001) %MON advcfl_vvel_max              =   1.0240615062181E+00
(PID.TID 0000.0001) %MON advcfl_wvel_max              =   4.8050241275036E-16
(PID.TID 0000.0001) %MON advcfl_W_hf_max              =   0.0000000000000E+00
(PID.TID 0000.0001) %MON pe_b_mean                    =   0.0000000000000E+00
(PID.TID 0000.0001) %MON ke_max                       =   7.4475958662786E+02
(PID.TID 0000.0001) %MON ke_mean                      =   4.9660795630338E+02
(PID.TID 0000.0001) %MON ke_vol                       =   5.0990436378172E+19
(PID.TID 0000.0001) %MON vort_r_min                   =  -1.2114474455529E-05
(PID.TID 0000.0001) %MON vort_r_max                   =   1.2114474455529E-05
(PID.TID 0000.0001) %MON vort_a_mean                  =   2.4513551737851E-21
(PID.TID 0000.0001) %MON vort_a_sd                    =   9.0967845104703E-05
(PID.TID 0000.0001) %MON vort_p_mean                  =   2.4513551737851E-21
(PID.TID 0000.0001) %MON vort_p_sd                    =   9.0967845104703E-05
(PID.TID 0000.0001) %MON surfExpan_theta_mean         =   3.9700077339231E-19
(PID.TID 0000.0001) %MON surfExpan_salt_mean          =   3.7256755978509E-19
(PID.TID 0000.0001) // =======================================================
(PID.TID 0000.0001) // End MONITOR dynamic field statistics
(PID.TID 0000.0001) // =======================================================
(PID.TID 0000.0001) // =======================================================
(PID.TID 0000.0001) // Begin MONITOR dynamic field statistics
(PID.TID 0000.0001) // =======================================================
(PID.TID 0000.0001) %MON time_tsnumber                =                    12
(PID.TID 0000.0001) %MON time_secondsf                =   4.3200000000000E+04
(PID.TID 0000.0001) %MON dynstat_eta_max              =   0.0000000000000E+00
(PID.TID 0000.0001) %MON dynstat_eta_min              =   0.0000000000000E+00
(PID.TID 0000.0001) %MON dynstat_eta_mean             =   0.0000000000000E+00
(PID.TID 0000.0001) %MON dynstat_eta_sd               =   0.0000000000000E+00
(PID.TID 0000.0001) %MON dynstat_eta_del2             =   0.0000000000000E+00
(PID.TID 0000.0001) %MON dynstat_uvel_max             =   3.8588909729197E+01
(PID.TID 0000.0001) %MON dynstat_uvel_min             =  -2.6640751857532E+01
(PID.TID 0000.0001) %MON dynstat_uvel_mean            =   1.1767801879505E+01
(PID.TID 0000.0001) %MON dynstat_uvel_sd              =   1.8925337749668E+01
(PID.TID 0000.0001) %MON dynstat_uvel_del2            =   3.3980387131857E-02
(PID.TID 0000.0001) %MON dynstat_vvel_max             =   3.8588909729197E+01
(PID.TID 0000.0001) %MON dynstat_vvel_min             =  -2.6640751857532E+01
(PID.TID 0000.0001) %MON dynstat_vvel_mean            =   1.1767801879505E+01
(PID.TID 0000.0001) %MON dynstat_vvel_sd              =   1.8925337749668E+01
(PID.TID 0000.0001) %MON dynstat_vvel_del2            =   3.3980387131857E-02
(PID.TID 0000.0001) %MON dynstat_wvel_max             =   6.6736446215327E-15
(PID.TID 0000.0001) %MON dynstat_wvel_min             =  -6.6736446215327E-15
(PID.TID 0000.0001) %MON dynstat_wvel_mean            =   2.3939844639623E-19
(PID.TID 0000.0001) %MON dynstat_wvel_sd              =   1.5089012586666E-15
(PID.TID 0000.0001) %MON dynstat_wvel_del2            =   1.4563361156032E-15
(PID.TID 0000.0001) %MON dynstat_theta_max            =   1.9498819544517E+00
(PID.TID 0000.0001) %MON dynstat_theta_min            =   9.9996784683682E-01
(PID.TID 0000.0001) %MON dynstat_theta_mean           =   1.0066888037826E+00
(PID.TID 0000.0001) %MON dynstat_theta_sd             =   6.1342605885370E-02
(PID.TID 0000.0001) %MON dynstat_theta_del2           =   4.4362545244298E-04
(PID.TID 0000.0001) %MON dynstat_salt_max             =   1.9666567631872E+00
(PID.TID 0000.0001) %MON dynstat_salt_min             =   9.9992990140778E-01
(PID.TID 0000.0001) %MON dynstat_salt_mean            =   1.0066901484881E+00
(PID.TID 0000.0001) %MON dynstat_salt_sd              =   6.1467588430363E-02
(PID.TID 0000.0001) %MON dynstat_salt_del2            =   4.5139272553462E-04
(PID.TID 0000.0001) %MON advcfl_uvel_max              =   1.0240615062181E+00
(PID.TID 0000.0001) %MON advcfl_vvel_max              =   1.0240615062181E+00
(PID.TID 0000.0001) %MON advcfl_wvel_max              =   4.8050241275036E-16
(PID.TID 0000.0001) %MON advcfl_W_hf_max              =   0.0000000000000E+00
(PID.TID 0000.0001) %MON pe_b_mean                    =   0.0000000000000E+00
(PID.TID 0000.0001) %MON ke_max                       =   7.4475958662786E+02
(PID.TID 0000.0001) %MON ke_mean                      =   4.9660795630338E+02
(PID.TID 0000.0001) %MON ke_vol                       =   5.0990436378172E+19
(PID.TID 0000.0001) %MON vort_r_min                   =  -1.2114474455529E-05
(PID.TID 0000.0001) %MON vort_r_max                   =   1.2114474455529E-05
(PID.TID 0000.0001) %MON vort_a_mean                  =   2.4513551737851E-21
(PID.TID 0000.0001) %MON vort_a_sd                    =   9.0967845104703E-05
(PID.TID 0000.0001) %MON vort_p_mean                  =   2.4513551737851E-21
(PID.TID 0000.0001) %MON vort_p_sd                    =   9.0967845104703E-05
(PID.TID 0000.0001) %MON surfExpan_theta_mean         =   1.2569401947132E-19
(PID.TID 0000.0001) %MON surfExpan_salt_mean          =   6.8949809893039E-19
(PID.TID 0000.0001) // =======================================================
(PID.TID 0000.0001) // End MONITOR dynamic field statistics
(PID.TID 0000.0001) // =======================================================
(PID.TID 0000.0001) // =======================================================
(PID.TID 0000.0001) // Begin MONITOR dynamic field statistics
(PID.TID 0000.0001) // =======================================================
(PID.TID 0000.0001) %MON time_tsnumber                =                    18
(PID.TID 0000.0001) %MON time_secondsf                =   6.4800000000000E+04
(PID.TID 0000.0001) %MON dynstat_eta_max              =   0.0000000000000E+00
(PID.TID 0000.0001) %MON dynstat_eta_min              =   0.0000000000000E+00
(PID.TID 0000.0001) %MON dynstat_eta_mean             =   0.0000000000000E+00
(PID.TID 0000.0001) %MON dynstat_eta_sd               =   0.0000000000000E+00
(PID.TID 0000.0001) %MON dynstat_eta_del2             =   0.0000000000000E+00
(PID.TID 0000.0001) %MON dynstat_uvel_max             =   3.8588909729197E+01
(PID.TID 0000.0001) %MON dynstat_uvel_min             =  -2.6640751857532E+01
(PID.TID 0000.0001) %MON dynstat_uvel_mean            =   1.1767801879505E+01
(PID.TID 0000.0001) %MON dynstat_uvel_sd              =   1.8925337749668E+01
(PID.TID 0000.0001) %MON dynstat_uvel_del2            =   3.3980387131857E-02
(PID.TID 0000.0001) %MON dynstat_vvel_max             =   3.8588909729197E+01
(PID.TID 0000.0001) %MON dynstat_vvel_min             =  -2.6640751857532E+01
(PID.TID 0000.0001) %MON dynstat_vvel_mean            =   1.1767801879505E+01
(PID.TID 0000.0001) %MON dynstat_vvel_sd              =   1.8925337749668E+01
(PID.TID 0000.0001) %MON dynstat_vvel_del2            =   3.3980387131857E-02
(PID.TID 0000.0001) %MON dynstat_wvel_max             =   6.6736446215327E-15
(PID.TID 0000.0001) %MON dynstat_wvel_min             =  -6.6736446215327E-15
(PID.TID 0000.0001) %MON dynstat_wvel_mean            =   2.3939844639623E-19
(PID.TID 0000.0001) %MON dynstat_wvel_sd              =   1.5089012586666E-15
(PID.TID 0000.0001) %MON dynstat_wvel_del2            =   1.4563361156032E-15
(PID.TID 0000.0001) %MON dynstat_theta_max            =   1.9412198200332E+00
(PID.TID 0000.0001) %MON dynstat_theta_min            =   9.9997730902529E-01
(PID.TID 0000.0001) %MON dynstat_theta_mean           =   1.0066888037826E+00
(PID.TID 0000.0001) %MON dynstat_theta_sd             =   6.1084313007264E-02
(PID.TID 0000.0001) %MON dynstat_theta_del2           =   4.4189540141064E-04
(PID.TID 0000.0001) %MON dynstat_salt_max             =   1.9506608126585E+00
(PID.TID 0000.0001) %MON dynstat_salt_min             =   9.9993001832107E-01
(PID.TID 0000.0001) %MON dynstat_salt_mean            =   1.0066901484881E+00
(PID.TID 0000.0001) %MON dynstat_salt_sd              =   6.1264828439591E-02
(PID.TID 0000.0001) %MON dynstat_salt_del2            =   4.6232773765649E-04
(PID.TID 0000.0001) %MON advcfl_uvel_max              =   1.0240615062181E+00
(PID.TID 0000.0001) %MON advcfl_vvel_max              =   1.0240615062181E+00
(PID.TID 0000.0001) %MON advcfl_wvel_max              =   4.8050241275036E-16
(PID.TID 0000.0001) %MON advcfl_W_hf_max              =   0.0000000000000E+00
(PID.TID 0000.0001) %MON pe_b_mean                    =   0.0000000000000E+00
(PID.TID 0000.0001) %MON ke_max                       =   7.4475958662786E+02
(PID.TID 0000.0001) %MON ke_mean                      =   4.9660795630338E+02
(PID.TID 0000.0001) %MON ke_vol                       =   5.0990436378172E+19
(PID.TID 0000.0001) %MON vort_r_min                   =  -1.2114474455529E-05
(PID.TID 0000.0001) %MON vort_r_max                   =   1.2114474455529E-05
(PID.TID 0000.0001) %MON vort_a_mean                  =   2.4513551737851E-21
(PID.TID 0000.0001) %MON vort_a_sd                    =   9.0967845104703E-05
(PID.TID 0000.0001) %MON vort_p_mean                  =   2.4513551737851E-21
(PID.TID 0000.0001) %MON vort_p_sd                    =   9.0967845104703E-05
(PID.TID 0000.0001) %MON surfExpan_theta_mean         =   5.0962107600669E-19
(PID.TID 0000.0001) %MON surfExpan_salt_mean          =   8.1219197408198E-19
(PID.TID 0000.0001) // =======================================================
(PID.TID 0000.0001) // End MONITOR dynamic field statistics
(PID.TID 0000.0001) // =======================================================
(PID.TID 0000.0001) // =======================================================
(PID.TID 0000.0001) // Begin MONITOR dynamic field statistics
(PID.TID 0000.0001) // =======================================================
(PID.TID 0000.0001) %MON time_tsnumber                =                    24
(PID.TID 0000.0001) %MON time_secondsf                =   8.6400000000000E+04
(PID.TID 0000.0001) %MON dynstat_eta_max              =   0.0000000000000E+00
(PID.TID 0000.0001) %MON dynstat_eta_min              =   0.0000000000000E+00
(PID.TID 0000.0001) %MON dynstat_eta_mean             =   0.0000000000000E+00
(PID.TID 0000.0001) %MON dynstat_eta_sd               =   0.0000000000000E+00
(PID.TID 0000.0001) %MON dynstat_eta_del2             =   0.0000000000000E+00
(PID.TID 0000.0001) %MON dynstat_uvel_max             =   3.8588909729197E+01
(PID.TID 0000.0001) %MON dynstat_uvel_min             =  -2.6640751857532E+01
(PID.TID 0000.0001) %MON dynstat_uvel_mean            =   1.1767801879505E+01
(PID.TID 0000.0001) %MON dynstat_uvel_sd              =   1.8925337749668E+01
(PID.TID 0000.0001) %MON dynstat_uvel_del2            =   3.3980387131857E-02
(PID.TID 0000.0001) %MON dynstat_vvel_max             =   3.8588909729197E+01
(PID.TID 0000.0001) %MON dynstat_vvel_min             =  -2.6640751857532E+01
(PID.TID 0000.0001) %MON dynstat_vvel_mean            =   1.1767801879505E+01
(PID.TID 0000.0001) %MON dynstat_vvel_sd              =   1.8925337749668E+01
(PID.TID 0000.0001) %MON dynstat_vvel_del2            =   3.3980387131857E-02
(PID.TID 0000.0001) %MON dynstat_wvel_max             =   6.6736446215327E-15
(PID.TID 0000.0001) %MON dynstat_wvel_min             =  -6.6736446215327E-15
(PID.TID 0000.0001) %MON dynstat_wvel_mean            =   2.3939844639623E-19
(PID.TID 0000.0001) %MON dynstat_wvel_sd              =   1.5089012586666E-15
(PID.TID 0000.0001) %MON dynstat_wvel_del2            =   1.4563361156032E-15
(PID.TID 0000.0001) %MON dynstat_theta_max            =   1.9352279203448E+00
(PID.TID 0000.0001) %MON dynstat_theta_min            =   9.9998105273529E-01
(PID.TID 0000.0001) %MON dynstat_theta_mean           =   1.0066888037826E+00
(PID.TID 0000.0001) %MON dynstat_theta_sd             =   6.0852643990116E-02
(PID.TID 0000.0001) %MON dynstat_theta_del2           =   4.3521582624854E-04
(PID.TID 0000.0001) %MON dynstat_salt_max             =   1.9469757532366E+00
(PID.TID 0000.0001) %MON dynstat_salt_min             =   9.9995354786976E-01
(PID.TID 0000.0001) %MON dynstat_salt_mean            =   1.0066901484881E+00
(PID.TID 0000.0001) %MON dynstat_salt_sd              =   6.1082502640873E-02
(PID.TID 0000.0001) %MON dynstat_salt_del2            =   4.8225367905198E-04
(PID.TID 0000.0001) %MON advcfl_uvel_max              =   1.0240615062181E+00
(PID.TID 0000.0001) %MON advcfl_vvel_max              =   1.0240615062181E+00
(PID.TID 0000.0001) %MON advcfl_wvel_max              =   4.8050241275036E-16
(PID.TID 0000.0001) %MON advcfl_W_hf_max              =   0.0000000000000E+00
(PID.TID 0000.0001) %MON pe_b_mean                    =   0.0000000000000E+00
(PID.TID 0000.0001) %MON ke_max                       =   7.4475958662786E+02
(PID.TID 0000.0001) %MON ke_mean                      =   4.9660795630338E+02
(PID.TID 0000.0001) %MON ke_vol                       =   5.0990436378172E+19
(PID.TID 0000.0001) %MON vort_r_min                   =  -1.2114474455529E-05
(PID.TID 0000.0001) %MON vort_r_max                   =   1.2114474455529E-05
(PID.TID 0000.0001) %MON vort_a_mean                  =   2.4513551737851E-21
(PID.TID 0000.0001) %MON vort_a_sd                    =   9.0967845104703E-05
(PID.TID 0000.0001) %MON vort_p_mean                  =   2.4513551737851E-21
(PID.TID 0000.0001) %MON vort_p_sd                    =   9.0967845104703E-05
(PID.TID 0000.0001) %MON surfExpan_theta_mean         =   1.6387032468440E-19
(PID.TID 0000.0001) %MON surfExpan_salt_mean          =   3.8930279570877E-19
(PID.TID 0000.0001) // =======================================================
(PID.TID 0000.0001) // End MONITOR dynamic field statistics
(PID.TID 0000.0001) // =======================================================
(PID.TID 0000.0001) // =======================================================
(PID.TID 0000.0001) // Begin MONITOR dynamic field statistics
(PID.TID 0000.0001) // =======================================================
(PID.TID 0000.0001) %MON time_tsnumber                =                    30
(PID.TID 0000.0001) %MON time_secondsf                =   1.0800000000000E+05
(PID.TID 0000.0001) %MON dynstat_eta_max              =   0.0000000000000E+00
(PID.TID 0000.0001) %MON dynstat_eta_min              =   0.0000000000000E+00
(PID.TID 0000.0001) %MON dynstat_eta_mean             =   0.0000000000000E+00
(PID.TID 0000.0001) %MON dynstat_eta_sd               =   0.0000000000000E+00
(PID.TID 0000.0001) %MON dynstat_eta_del2             =   0.0000000000000E+00
(PID.TID 0000.0001) %MON dynstat_uvel_max             =   3.8588909729197E+01
(PID.TID 0000.0001) %MON dynstat_uvel_min             =  -2.6640751857532E+01
(PID.TID 0000.0001) %MON dynstat_uvel_mean            =   1.1767801879505E+01
(PID.TID 0000.0001) %MON dynstat_uvel_sd              =   1.8925337749668E+01
(PID.TID 0000.0001) %MON dynstat_uvel_del2            =   3.3980387131857E-02
(PID.TID 0000.0001) %MON dynstat_vvel_max             =   3.8588909729197E+01
(PID.TID 0000.0001) %MON dynstat_vvel_min             =  -2.6640751857532E+01
(PID.TID 0000.0001) %MON dynstat_vvel_mean            =   1.1767801879505E+01
(PID.TID 0000.0001) %MON dynstat_vvel_sd              =   1.8925337749668E+01
(PID.TID 0000.0001) %MON dynstat_vvel_del2            =   3.3980387131857E-02
(PID.TID 0000.0001) %MON dynstat_wvel_max             =   6.6736446215327E-15
(PID.TID 0000.0001) %MON dynstat_wvel_min             =  -6.6736446215327E-15
(PID.TID 0000.0001) %MON dynstat_wvel_mean            =   2.3939844639623E-19
(PID.TID 0000.0001) %MON dynstat_wvel_sd              =   1.5089012586666E-15
(PID.TID 0000.0001) %MON dynstat_wvel_del2            =   1.4563361156032E-15
(PID.TID 0000.0001) %MON dynstat_theta_max            =   1.9317151328639E+00
(PID.TID 0000.0001) %MON dynstat_theta_min            =   9.9998363873090E-01
(PID.TID 0000.0001) %MON dynstat_theta_mean           =   1.0066888037826E+00
(PID.TID 0000.0001) %MON dynstat_theta_sd             =   6.0642200272325E-02
(PID.TID 0000.0001) %MON dynstat_theta_del2           =   4.3507794012305E-04
(PID.TID 0000.0001) %MON dynstat_salt_max             =   1.9410300009885E+00
(PID.TID 0000.0001) %MON dynstat_salt_min             =   9.9996145328792E-01
(PID.TID 0000.0001) %MON dynstat_salt_mean            =   1.0066901484881E+00
(PID.TID 0000.0001) %MON dynstat_salt_sd              =   6.0963619150255E-02
(PID.TID 0000.0001) %MON dynstat_salt_del2            =   4.7882702734098E-04
(PID.TID 0000.0001) %MON advcfl_uvel_max              =   1.0240615062181E+00
(PID.TID 0000.0001) %MON advcfl_vvel_max              =   1.0240615062181E+00
(PID.TID 0000.0001) %MON advcfl_wvel_max              =   4.8050241275036E-16
(PID.TID 0000.0001) %MON advcfl_W_hf_max              =   0.0000000000000E+00
(PID.TID 0000.0001) %MON pe_b_mean                    =   0.0000000000000E+00
(PID.TID 0000.0001) %MON ke_max                       =   7.4475958662786E+02
(PID.TID 0000.0001) %MON ke_mean                      =   4.9660795630338E+02
(PID.TID 0000.0001) %MON ke_vol                       =   5.0990436378172E+19
(PID.TID 0000.0001) %MON vort_r_min                   =  -1.2114474455529E-05
(PID.TID 0000.0001) %MON vort_r_max                   =   1.2114474455529E-05
(PID.TID 0000.0001) %MON vort_a_mean                  =   2.4513551737851E-21
(PID.TID 0000.0001) %MON vort_a_sd                    =   9.0967845104703E-05
(PID.TID 0000.0001) %MON vort_p_mean                  =   2.4513551737851E-21
(PID.TID 0000.0001) %MON vort_p_sd                    =   9.0967845104703E-05
(PID.TID 0000.0001) %MON surfExpan_theta_mean         =  -1.7320623200814E-19
(PID.TID 0000.0001) %MON surfExpan_salt_mean          =   6.6182285005167E-20
(PID.TID 0000.0001) // =======================================================
(PID.TID 0000.0001) // End MONITOR dynamic field statistics
(PID.TID 0000.0001) // =======================================================
(PID.TID 0000.0001) // =======================================================
(PID.TID 0000.0001) // Begin MONITOR dynamic field statistics
(PID.TID 0000.0001) // =======================================================
(PID.TID 0000.0001) %MON time_tsnumber                =                    36
(PID.TID 0000.0001) %MON time_secondsf                =   1.2960000000000E+05
(PID.TID 0000.0001) %MON dynstat_eta_max              =   0.0000000000000E+00
(PID.TID 0000.0001) %MON dynstat_eta_min              =   0.0000000000000E+00
(PID.TID 0000.0001) %MON dynstat_eta_mean             =   0.0000000000000E+00
(PID.TID 0000.0001) %MON dynstat_eta_sd               =   0.0000000000000E+00
(PID.TID 0000.0001) %MON dynstat_eta_del2             =   0.0000000000000E+00
(PID.TID 0000.0001) %MON dynstat_uvel_max             =   3.8588909729197E+01
(PID.TID 0000.0001) %MON dynstat_uvel_min             =  -2.6640751857532E+01
(PID.TID 0000.0001) %MON dynstat_uvel_mean            =   1.1767801879505E+01
(PID.TID 0000.0001) %MON dynstat_uvel_sd              =   1.8925337749668E+01
(PID.TID 0000.0001) %MON dynstat_uvel_del2            =   3.3980387131857E-02
(PID.TID 0000.0001) %MON dynstat_vvel_max             =   3.8588909729197E+01
(PID.TID 0000.0001) %MON dynstat_vvel_min             =  -2.6640751857532E+01
(PID.TID 0000.0001) %MON dynstat_vvel_mean            =   1.1767801879505E+01
(PID.TID 0000.0001) %MON dynstat_vvel_sd              =   1.8925337749668E+01
(PID.TID 0000.0001) %MON dynstat_vvel_del2            =   3.3980387131857E-02
(PID.TID 0000.0001) %MON dynstat_wvel_max             =   6.6736446215327E-15
(PID.TID 0000.0001) %MON dynstat_wvel_min             =  -6.6736446215327E-15
(PID.TID 0000.0001) %MON dynstat_wvel_mean            =   2.3939844639623E-19
(PID.TID 0000.0001) %MON dynstat_wvel_sd              =   1.5089012586666E-15
(PID.TID 0000.0001) %MON dynstat_wvel_del2            =   1.4563361156032E-15
(PID.TID 0000.0001) %MON dynstat_theta_max            =   1.9229274798071E+00
(PID.TID 0000.0001) %MON dynstat_theta_min            =   9.9998493222106E-01
(PID.TID 0000.0001) %MON dynstat_theta_mean           =   1.0066888037826E+00
(PID.TID 0000.0001) %MON dynstat_theta_sd             =   6.0452062104145E-02
(PID.TID 0000.0001) %MON dynstat_theta_del2           =   4.3479014949801E-04
(PID.TID 0000.0001) %MON dynstat_salt_max             =   1.9396510203936E+00
(PID.TID 0000.0001) %MON dynstat_salt_min             =   9.9996641846778E-01
(PID.TID 0000.0001) %MON dynstat_salt_mean            =   1.0066901484881E+00
(PID.TID 0000.0001) %MON dynstat_salt_sd              =   6.0866812265810E-02
(PID.TID 0000.0001) %MON dynstat_salt_del2            =   4.5693112463727E-04
(PID.TID 0000.0001) %MON advcfl_uvel_max              =   1.0240615062181E+00
(PID.TID 0000.0001) %MON advcfl_vvel_max              =   1.0240615062181E+00
(PID.TID 0000.0001) %MON advcfl_wvel_max              =   4.8050241275036E-16
(PID.TID 0000.0001) %MON advcfl_W_hf_max              =   0.0000000000000E+00
(PID.TID 0000.0001) %MON pe_b_mean                    =   0.0000000000000E+00
(PID.TID 0000.0001) %MON ke_max                       =   7.4475958662786E+02
(PID.TID 0000.0001) %MON ke_mean                      =   4.9660795630338E+02
(PID.TID 0000.0001) %MON ke_vol                       =   5.0990436378172E+19
(PID.TID 0000.0001) %MON vort_r_min                   =  -1.2114474455529E-05
(PID.TID 0000.0001) %MON vort_r_max                   =   1.2114474455529E-05
(PID.TID 0000.0001) %MON vort_a_mean                  =   2.4513551737851E-21
(PID.TID 0000.0001) %MON vort_a_sd                    =   9.0967845104703E-05
(PID.TID 0000.0001) %MON vort_p_mean                  =   2.4513551737851E-21
(PID.TID 0000.0001) %MON vort_p_sd                    =   9.0967845104703E-05
(PID.TID 0000.0001) %MON surfExpan_theta_mean         =   2.4209018713294E-19
(PID.TID 0000.0001) %MON surfExpan_salt_mean          =   4.1149092757117E-19
(PID.TID 0000.0001) // =======================================================
(PID.TID 0000.0001) // End MONITOR dynamic field statistics
(PID.TID 0000.0001) // =======================================================
(PID.TID 0000.0001) // =======================================================
(PID.TID 0000.0001) // Begin MONITOR dynamic field statistics
(PID.TID 0000.0001) // =======================================================
(PID.TID 0000.0001) %MON time_tsnumber                =                    42
(PID.TID 0000.0001) %MON time_secondsf                =   1.5120000000000E+05
(PID.TID 0000.0001) %MON dynstat_eta_max              =   0.0000000000000E+00
(PID.TID 0000.0001) %MON dynstat_eta_min              =   0.0000000000000E+00
(PID.TID 0000.0001) %MON dynstat_eta_mean             =   0.0000000000000E+00
(PID.TID 0000.0001) %MON dynstat_eta_sd               =   0.0000000000000E+00
(PID.TID 0000.0001) %MON dynstat_eta_del2             =   0.0000000000000E+00
(PID.TID 0000.0001) %MON dynstat_uvel_max             =   3.8588909729197E+01
(PID.TID 0000.0001) %MON dynstat_uvel_min             =  -2.6640751857532E+01
(PID.TID 0000.0001) %MON dynstat_uvel_mean            =   1.1767801879505E+01
(PID.TID 0000.0001) %MON dynstat_uvel_sd              =   1.8925337749668E+01
(PID.TID 0000.0001) %MON dynstat_uvel_del2            =   3.3980387131857E-02
(PID.TID 0000.0001) %MON dynstat_vvel_max             =   3.8588909729197E+01
(PID.TID 0000.0001) %MON dynstat_vvel_min             =  -2.6640751857532E+01
(PID.TID 0000.0001) %MON dynstat_vvel_mean            =   1.1767801879505E+01
(PID.TID 0000.0001) %MON dynstat_vvel_sd              =   1.8925337749668E+01
(PID.TID 0000.0001) %MON dynstat_vvel_del2            =   3.3980387131857E-02
(PID.TID 0000.0001) %MON dynstat_wvel_max             =   6.6736446215327E-15
(PID.TID 0000.0001) %MON dynstat_wvel_min             =  -6.6736446215327E-15
(PID.TID 0000.0001) %MON dynstat_wvel_mean            =   2.3939844639623E-19
(PID.TID 0000.0001) %MON dynstat_wvel_sd              =   1.5089012586666E-15
(PID.TID 0000.0001) %MON dynstat_wvel_del2            =   1.4563361156032E-15
(PID.TID 0000.0001) %MON dynstat_theta_max            =   1.9215739462062E+00
(PID.TID 0000.0001) %MON dynstat_theta_min            =   9.9998623276961E-01
(PID.TID 0000.0001) %MON dynstat_theta_mean           =   1.0066888037826E+00
(PID.TID 0000.0001) %MON dynstat_theta_sd             =   6.0263820744822E-02
(PID.TID 0000.0001) %MON dynstat_theta_del2           =   4.2870678963309E-04
(PID.TID 0000.0001) %MON dynstat_salt_max             =   1.9387891112078E+00
(PID.TID 0000.0001) %MON dynstat_salt_min             =   9.9997098774501E-01
(PID.TID 0000.0001) %MON dynstat_salt_mean            =   1.0066901484881E+00
(PID.TID 0000.0001) %MON dynstat_salt_sd              =   6.0749426377013E-02
(PID.TID 0000.0001) %MON dynstat_salt_del2            =   4.7592339193973E-04
(PID.TID 0000.0001) %MON advcfl_uvel_max              =   1.0240615062181E+00
(PID.TID 0000.0001) %MON advcfl_vvel_max              =   1.0240615062181E+00
(PID.TID 0000.0001) %MON advcfl_wvel_max              =   4.8050241275036E-16
(PID.TID 0000.0001) %MON advcfl_W_hf_max              =   0.0000000000000E+00
(PID.TID 0000.0001) %MON pe_b_mean                    =   0.0000000000000E+00
(PID.TID 0000.0001) %MON ke_max                       =   7.4475958662786E+02
(PID.TID 0000.0001) %MON ke_mean                      =   4.9660795630338E+02
(PID.TID 0000.0001) %MON ke_vol                       =   5.0990436378172E+19
(PID.TID 0000.0001) %MON vort_r_min                   =  -1.2114474455529E-05
(PID.TID 0000.0001) %MON vort_r_max                   =   1.2114474455529E-05
(PID.TID 0000.0001) %MON vort_a_mean                  =   2.4513551737851E-21
(PID.TID 0000.0001) %MON vort_a_sd                    =   9.0967845104703E-05
(PID.TID 0000.0001) %MON vort_p_mean                  =   2.4513551737851E-21
(PID.TID 0000.0001) %MON vort_p_sd                    =   9.0967845104703E-05
(PID.TID 0000.0001) %MON surfExpan_theta_mean         =   9.5723701684675E-19
(PID.TID 0000.0001) %MON surfExpan_salt_mean          =   7.2636309957159E-19
(PID.TID 0000.0001) // =======================================================
(PID.TID 0000.0001) // End MONITOR dynamic field statistics
(PID.TID 0000.0001) // =======================================================
(PID.TID 0000.0001) // =======================================================
(PID.TID 0000.0001) // Begin MONITOR dynamic field statistics
(PID.TID 0000.0001) // =======================================================
(PID.TID 0000.0001) %MON time_tsnumber                =                    48
(PID.TID 0000.0001) %MON time_secondsf                =   1.7280000000000E+05
(PID.TID 0000.0001) %MON dynstat_eta_max              =   0.0000000000000E+00
(PID.TID 0000.0001) %MON dynstat_eta_min              =   0.0000000000000E+00
(PID.TID 0000.0001) %MON dynstat_eta_mean             =   0.0000000000000E+00
(PID.TID 0000.0001) %MON dynstat_eta_sd               =   0.0000000000000E+00
(PID.TID 0000.0001) %MON dynstat_eta_del2             =   0.0000000000000E+00
(PID.TID 0000.0001) %MON dynstat_uvel_max             =   3.8588909729197E+01
(PID.TID 0000.0001) %MON dynstat_uvel_min             =  -2.6640751857532E+01
(PID.TID 0000.0001) %MON dynstat_uvel_mean            =   1.1767801879505E+01
(PID.TID 0000.0001) %MON dynstat_uvel_sd              =   1.8925337749668E+01
(PID.TID 0000.0001) %MON dynstat_uvel_del2            =   3.3980387131857E-02
(PID.TID 0000.0001) %MON dynstat_vvel_max             =   3.8588909729197E+01
(PID.TID 0000.0001) %MON dynstat_vvel_min             =  -2.6640751857532E+01
(PID.TID 0000.0001) %MON dynstat_vvel_mean            =   1.1767801879505E+01
(PID.TID 0000.0001) %MON dynstat_vvel_sd              =   1.8925337749668E+01
(PID.TID 0000.0001) %MON dynstat_vvel_del2            =   3.3980387131857E-02
(PID.TID 0000.0001) %MON dynstat_wvel_max             =   6.6736446215327E-15
(PID.TID 0000.0001) %MON dynstat_wvel_min             =  -6.6736446215327E-15
(PID.TID 0000.0001) %MON dynstat_wvel_mean            =   2.3939844639623E-19
(PID.TID 0000.0001) %MON dynstat_wvel_sd              =   1.5089012586666E-15
(PID.TID 0000.0001) %MON dynstat_wvel_del2            =   1.4563361156032E-15
(PID.TID 0000.0001) %MON dynstat_theta_max            =   1.9156013567719E+00
(PID.TID 0000.0001) %MON dynstat_theta_min            =   9.9998712017363E-01
(PID.TID 0000.0001) %MON dynstat_theta_mean           =   1.0066888037826E+00
(PID.TID 0000.0001) %MON dynstat_theta_sd             =   6.0079035715397E-02
(PID.TID 0000.0001) %MON dynstat_theta_del2           =   4.2317536320900E-04
(PID.TID 0000.0001) %MON dynstat_salt_max             =   1.9380086068559E+00
(PID.TID 0000.0001) %MON dynstat_salt_min             =   9.9997495823698E-01
(PID.TID 0000.0001) %MON dynstat_salt_mean            =   1.0066901484881E+00
(PID.TID 0000.0001) %MON dynstat_salt_sd              =   6.0628827763080E-02
(PID.TID 0000.0001) %MON dynstat_salt_del2            =   4.6740331974447E-04
(PID.TID 0000.0001) %MON advcfl_uvel_max              =   1.0240615062181E+00
(PID.TID 0000.0001) %MON advcfl_vvel_max              =   1.0240615062181E+00
(PID.TID 0000.0001) %MON advcfl_wvel_max              =   4.8050241275036E-16
(PID.TID 0000.0001) %MON advcfl_W_hf_max              =   0.0000000000000E+00
(PID.TID 0000.0001) %MON pe_b_mean                    =   0.0000000000000E+00
(PID.TID 0000.0001) %MON ke_max                       =   7.4475958662786E+02
(PID.TID 0000.0001) %MON ke_mean                      =   4.9660795630338E+02
(PID.TID 0000.0001) %MON ke_vol                       =   5.0990436378172E+19
(PID.TID 0000.0001) %MON vort_r_min                   =  -1.2114474455529E-05
(PID.TID 0000.0001) %MON vort_r_max                   =   1.2114474455529E-05
(PID.TID 0000.0001) %MON vort_a_mean                  =   2.4513551737851E-21
(PID.TID 0000.0001) %MON vort_a_sd                    =   9.0967845104703E-05
(PID.TID 0000.0001) %MON vort_p_mean                  =   2.4513551737851E-21
(PID.TID 0000.0001) %MON vort_p_sd                    =   9.0967845104703E-05
(PID.TID 0000.0001) %MON surfExpan_theta_mean         =   2.8150242017141E-19
(PID.TID 0000.0001) %MON surfExpan_salt_mean          =   5.4205796186633E-19
(PID.TID 0000.0001) // =======================================================
(PID.TID 0000.0001) // End MONITOR dynamic field statistics
(PID.TID 0000.0001) // =======================================================
(PID.TID 0000.0001) // =======================================================
(PID.TID 0000.0001) // Begin MONITOR dynamic field statistics
(PID.TID 0000.0001) // =======================================================
(PID.TID 0000.0001) %MON time_tsnumber                =                    54
(PID.TID 0000.0001) %MON time_secondsf                =   1.9440000000000E+05
(PID.TID 0000.0001) %MON dynstat_eta_max              =   0.0000000000000E+00
(PID.TID 0000.0001) %MON dynstat_eta_min              =   0.0000000000000E+00
(PID.TID 0000.0001) %MON dynstat_eta_mean             =   0.0000000000000E+00
(PID.TID 0000.0001) %MON dynstat_eta_sd               =   0.0000000000000E+00
(PID.TID 0000.0001) %MON dynstat_eta_del2             =   0.0000000000000E+00
(PID.TID 0000.0001) %MON dynstat_uvel_max             =   3.8588909729197E+01
(PID.TID 0000.0001) %MON dynstat_uvel_min             =  -2.6640751857532E+01
(PID.TID 0000.0001) %MON dynstat_uvel_mean            =   1.1767801879505E+01
(PID.TID 0000.0001) %MON dynstat_uvel_sd              =   1.8925337749668E+01
(PID.TID 0000.0001) %MON dynstat_uvel_del2            =   3.3980387131857E-02
(PID.TID 0000.0001) %MON dynstat_vvel_max             =   3.8588909729197E+01
(PID.TID 0000.0001) %MON dynstat_vvel_min             =  -2.6640751857532E+01
(PID.TID 0000.0001) %MON dynstat_vvel_mean            =   1.1767801879505E+01
(PID.TID 0000.0001) %MON dynstat_vvel_sd              =   1.8925337749668E+01
(PID.TID 0000.0001) %MON dynstat_vvel_del2            =   3.3980387131857E-02
(PID.TID 0000.0001) %MON dynstat_wvel_max             =   6.6736446215327E-15
(PID.TID 0000.0001) %MON dynstat_wvel_min             =  -6.6736446215327E-15
(PID.TID 0000.0001) %MON dynstat_wvel_mean            =   2.3939844639623E-19
(PID.TID 0000.0001) %MON dynstat_wvel_sd              =   1.5089012586666E-15
(PID.TID 0000.0001) %MON dynstat_wvel_del2            =   1.4563361156032E-15
(PID.TID 0000.0001) %MON dynstat_theta_max            =   1.9116923100305E+00
(PID.TID 0000.0001) %MON dynstat_theta_min            =   9.9995734925259E-01
(PID.TID 0000.0001) %MON dynstat_theta_mean           =   1.0066888037826E+00
(PID.TID 0000.0001) %MON dynstat_theta_sd             =   5.9890878767027E-02
(PID.TID 0000.0001) %MON dynstat_theta_del2           =   4.2290415509430E-04
(PID.TID 0000.0001) %MON dynstat_salt_max             =   1.9299636844597E+00
(PID.TID 0000.0001) %MON dynstat_salt_min             =   9.9964881643195E-01
(PID.TID 0000.0001) %MON dynstat_salt_mean            =   1.0066901484881E+00
(PID.TID 0000.0001) %MON dynstat_salt_sd              =   6.0493128611915E-02
(PID.TID 0000.0001) %MON dynstat_salt_del2            =   4.3800385786429E-04
(PID.TID 0000.0001) %MON advcfl_uvel_max              =   1.0240615062181E+00
(PID.TID 0000.0001) %MON advcfl_vvel_max              =   1.0240615062181E+00
(PID.TID 0000.0001) %MON advcfl_wvel_max              =   4.8050241275036E-16
(PID.TID 0000.0001) %MON advcfl_W_hf_max              =   0.0000000000000E+00
(PID.TID 0000.0001) %MON pe_b_mean                    =   0.0000000000000E+00
(PID.TID 0000.0001) %MON ke_max                       =   7.4475958662786E+02
(PID.TID 0000.0001) %MON ke_mean                      =   4.9660795630338E+02
(PID.TID 0000.0001) %MON ke_vol                       =   5.0990436378172E+19
(PID.TID 0000.0001) %MON vort_r_min                   =  -1.2114474455529E-05
(PID.TID 0000.0001) %MON vort_r_max                   =   1.2114474455529E-05
(PID.TID 0000.0001) %MON vort_a_mean                  =   2.4513551737851E-21
(PID.TID 0000.0001) %MON vort_a_sd                    =   9.0967845104703E-05
(PID.TID 0000.0001) %MON vort_p_mean                  =   2.4513551737851E-21
(PID.TID 0000.0001) %MON vort_p_sd                    =   9.0967845104703E-05
(PID.TID 0000.0001) %MON surfExpan_theta_mean         =  -8.4552999802442E-19
(PID.TID 0000.0001) %MON surfExpan_salt_mean          =   1.9983282944755E-19
(PID.TID 0000.0001) // =======================================================
(PID.TID 0000.0001) // End MONITOR dynamic field statistics
(PID.TID 0000.0001) // =======================================================
(PID.TID 0000.0001) // =======================================================
(PID.TID 0000.0001) // Begin MONITOR dynamic field statistics
(PID.TID 0000.0001) // =======================================================
(PID.TID 0000.0001) %MON time_tsnumber                =                    60
(PID.TID 0000.0001) %MON time_secondsf                =   2.1600000000000E+05
(PID.TID 0000.0001) %MON dynstat_eta_max              =   0.0000000000000E+00
(PID.TID 0000.0001) %MON dynstat_eta_min              =   0.0000000000000E+00
(PID.TID 0000.0001) %MON dynstat_eta_mean             =   0.0000000000000E+00
(PID.TID 0000.0001) %MON dynstat_eta_sd               =   0.0000000000000E+00
(PID.TID 0000.0001) %MON dynstat_eta_del2             =   0.0000000000000E+00
(PID.TID 0000.0001) %MON dynstat_uvel_max             =   3.8588909729197E+01
(PID.TID 0000.0001) %MON dynstat_uvel_min             =  -2.6640751857532E+01
(PID.TID 0000.0001) %MON dynstat_uvel_mean            =   1.1767801879505E+01
(PID.TID 0000.0001) %MON dynstat_uvel_sd              =   1.8925337749668E+01
(PID.TID 0000.0001) %MON dynstat_uvel_del2            =   3.3980387131857E-02
(PID.TID 0000.0001) %MON dynstat_vvel_max             =   3.8588909729197E+01
(PID.TID 0000.0001) %MON dynstat_vvel_min             =  -2.6640751857532E+01
(PID.TID 0000.0001) %MON dynstat_vvel_mean            =   1.1767801879505E+01
(PID.TID 0000.0001) %MON dynstat_vvel_sd              =   1.8925337749668E+01
(PID.TID 0000.0001) %MON dynstat_vvel_del2            =   3.3980387131857E-02
(PID.TID 0000.0001) %MON dynstat_wvel_max             =   6.6736446215327E-15
(PID.TID 0000.0001) %MON dynstat_wvel_min             =  -6.6736446215327E-15
(PID.TID 0000.0001) %MON dynstat_wvel_mean            =   2.3939844639623E-19
(PID.TID 0000.0001) %MON dynstat_wvel_sd              =   1.5089012586666E-15
(PID.TID 0000.0001) %MON dynstat_wvel_del2            =   1.4563361156032E-15
(PID.TID 0000.0001) %MON dynstat_theta_max            =   1.9034445275020E+00
(PID.TID 0000.0001) %MON dynstat_theta_min            =   9.9994591166690E-01
(PID.TID 0000.0001) %MON dynstat_theta_mean           =   1.0066888037826E+00
(PID.TID 0000.0001) %MON dynstat_theta_sd             =   5.9694057695150E-02
(PID.TID 0000.0001) %MON dynstat_theta_del2           =   4.1687680108448E-04
(PID.TID 0000.0001) %MON dynstat_salt_max             =   1.9271985027345E+00
(PID.TID 0000.0001) %MON dynstat_salt_min             =   9.9974370860149E-01
(PID.TID 0000.0001) %MON dynstat_salt_mean            =   1.0066901484881E+00
(PID.TID 0000.0001) %MON dynstat_salt_sd              =   6.0330680953580E-02
(PID.TID 0000.0001) %MON dynstat_salt_del2            =   4.3491644730285E-04
(PID.TID 0000.0001) %MON advcfl_uvel_max              =   1.0240615062181E+00
(PID.TID 0000.0001) %MON advcfl_vvel_max              =   1.0240615062181E+00
(PID.TID 0000.0001) %MON advcfl_wvel_max              =   4.8050241275036E-16
(PID.TID 0000.0001) %MON advcfl_W_hf_max              =   0.0000000000000E+00
(PID.TID 0000.0001) %MON pe_b_mean                    =   0.0000000000000E+00
(PID.TID 0000.0001) %MON ke_max                       =   7.4475958662786E+02
(PID.TID 0000.0001) %MON ke_mean                      =   4.9660795630338E+02
(PID.TID 0000.0001) %MON ke_vol                       =   5.0990436378172E+19
(PID.TID 0000.0001) %MON vort_r_min                   =  -1.2114474455529E-05
(PID.TID 0000.0001) %MON vort_r_max                   =   1.2114474455529E-05
(PID.TID 0000.0001) %MON vort_a_mean                  =   2.4513551737851E-21
(PID.TID 0000.0001) %MON vort_a_sd                    =   9.0967845104703E-05
(PID.TID 0000.0001) %MON vort_p_mean                  =   2.4513551737851E-21
(PID.TID 0000.0001) %MON vort_p_sd                    =   9.0967845104703E-05
(PID.TID 0000.0001) %MON surfExpan_theta_mean         =  -6.2525374130619E-19
(PID.TID 0000.0001) %MON surfExpan_salt_mean          =   2.9312054946051E-19
(PID.TID 0000.0001) // =======================================================
(PID.TID 0000.0001) // End MONITOR dynamic field statistics
(PID.TID 0000.0001) // =======================================================
(PID.TID 0000.0001) // =======================================================
(PID.TID 0000.0001) // Begin MONITOR dynamic field statistics
(PID.TID 0000.0001) // =======================================================
(PID.TID 0000.0001) %MON time_tsnumber                =                    66
(PID.TID 0000.0001) %MON time_secondsf                =   2.3760000000000E+05
(PID.TID 0000.0001) %MON dynstat_eta_max              =   0.0000000000000E+00
(PID.TID 0000.0001) %MON dynstat_eta_min              =   0.0000000000000E+00
(PID.TID 0000.0001) %MON dynstat_eta_mean             =   0.0000000000000E+00
(PID.TID 0000.0001) %MON dynstat_eta_sd               =   0.0000000000000E+00
(PID.TID 0000.0001) %MON dynstat_eta_del2             =   0.0000000000000E+00
(PID.TID 0000.0001) %MON dynstat_uvel_max             =   3.8588909729197E+01
(PID.TID 0000.0001) %MON dynstat_uvel_min             =  -2.6640751857532E+01
(PID.TID 0000.0001) %MON dynstat_uvel_mean            =   1.1767801879505E+01
(PID.TID 0000.0001) %MON dynstat_uvel_sd              =   1.8925337749668E+01
(PID.TID 0000.0001) %MON dynstat_uvel_del2            =   3.3980387131857E-02
(PID.TID 0000.0001) %MON dynstat_vvel_max             =   3.8588909729197E+01
(PID.TID 0000.0001) %MON dynstat_vvel_min             =  -2.6640751857532E+01
(PID.TID 0000.0001) %MON dynstat_vvel_mean            =   1.1767801879505E+01
(PID.TID 0000.0001) %MON dynstat_vvel_sd              =   1.8925337749668E+01
(PID.TID 0000.0001) %MON dynstat_vvel_del2            =   3.3980387131857E-02
(PID.TID 0000.0001) %MON dynstat_wvel_max             =   6.6736446215327E-15
(PID.TID 0000.0001) %MON dynstat_wvel_min             =  -6.6736446215327E-15
(PID.TID 0000.0001) %MON dynstat_wvel_mean            =   2.3939844639623E-19
(PID.TID 0000.0001) %MON dynstat_wvel_sd              =   1.5089012586666E-15
(PID.TID 0000.0001) %MON dynstat_wvel_del2            =   1.4563361156032E-15
(PID.TID 0000.0001) %MON dynstat_theta_max            =   1.8962429279854E+00
(PID.TID 0000.0001) %MON dynstat_theta_min            =   9.9988874070147E-01
(PID.TID 0000.0001) %MON dynstat_theta_mean           =   1.0066888037826E+00
(PID.TID 0000.0001) %MON dynstat_theta_sd             =   5.9494908956866E-02
(PID.TID 0000.0001) %MON dynstat_theta_del2           =   4.1425370087093E-04
(PID.TID 0000.0001) %MON dynstat_salt_max             =   1.9204507322532E+00
(PID.TID 0000.0001) %MON dynstat_salt_min             =   9.9973900148191E-01
(PID.TID 0000.0001) %MON dynstat_salt_mean            =   1.0066901484881E+00
(PID.TID 0000.0001) %MON dynstat_salt_sd              =   6.0163481849529E-02
(PID.TID 0000.0001) %MON dynstat_salt_del2            =   4.2954331485793E-04
(PID.TID 0000.0001) %MON advcfl_uvel_max              =   1.0240615062181E+00
(PID.TID 0000.0001) %MON advcfl_vvel_max              =   1.0240615062181E+00
(PID.TID 0000.0001) %MON advcfl_wvel_max              =   4.8050241275036E-16
(PID.TID 0000.0001) %MON advcfl_W_hf_max              =   0.0000000000000E+00
(PID.TID 0000.0001) %MON pe_b_mean                    =   0.0000000000000E+00
(PID.TID 0000.0001) %MON ke_max                       =   7.4475958662786E+02
(PID.TID 0000.0001) %MON ke_mean                      =   4.9660795630338E+02
(PID.TID 0000.0001) %MON ke_vol                       =   5.0990436378172E+19
(PID.TID 0000.0001) %MON vort_r_min                   =  -1.2114474455529E-05
(PID.TID 0000.0001) %MON vort_r_max                   =   1.2114474455529E-05
(PID.TID 0000.0001) %MON vort_a_mean                  =   2.4513551737851E-21
(PID.TID 0000.0001) %MON vort_a_sd                    =   9.0967845104703E-05
(PID.TID 0000.0001) %MON vort_p_mean                  =   2.4513551737851E-21
(PID.TID 0000.0001) %MON vort_p_sd                    =   9.0967845104703E-05
(PID.TID 0000.0001) %MON surfExpan_theta_mean         =  -1.0093566100814E-19
(PID.TID 0000.0001) %MON surfExpan_salt_mean          =   3.9641892637010E-19
(PID.TID 0000.0001) // =======================================================
(PID.TID 0000.0001) // End MONITOR dynamic field statistics
(PID.TID 0000.0001) // =======================================================
(PID.TID 0000.0001) // =======================================================
(PID.TID 0000.0001) // Begin MONITOR dynamic field statistics
(PID.TID 0000.0001) // =======================================================
(PID.TID 0000.0001) %MON time_tsnumber                =                    72
(PID.TID 0000.0001) %MON time_secondsf                =   2.5920000000000E+05
(PID.TID 0000.0001) %MON dynstat_eta_max              =   0.0000000000000E+00
(PID.TID 0000.0001) %MON dynstat_eta_min              =   0.0000000000000E+00
(PID.TID 0000.0001) %MON dynstat_eta_mean             =   0.0000000000000E+00
(PID.TID 0000.0001) %MON dynstat_eta_sd               =   0.0000000000000E+00
(PID.TID 0000.0001) %MON dynstat_eta_del2             =   0.0000000000000E+00
(PID.TID 0000.0001) %MON dynstat_uvel_max             =   3.8588909729197E+01
(PID.TID 0000.0001) %MON dynstat_uvel_min             =  -2.6640751857532E+01
(PID.TID 0000.0001) %MON dynstat_uvel_mean            =   1.1767801879505E+01
(PID.TID 0000.0001) %MON dynstat_uvel_sd              =   1.8925337749668E+01
(PID.TID 0000.0001) %MON dynstat_uvel_del2            =   3.3980387131857E-02
(PID.TID 0000.0001) %MON dynstat_vvel_max             =   3.8588909729197E+01
(PID.TID 0000.0001) %MON dynstat_vvel_min             =  -2.6640751857532E+01
(PID.TID 0000.0001) %MON dynstat_vvel_mean            =   1.1767801879505E+01
(PID.TID 0000.0001) %MON dynstat_vvel_sd              =   1.8925337749668E+01
(PID.TID 0000.0001) %MON dynstat_vvel_del2            =   3.3980387131857E-02
(PID.TID 0000.0001) %MON dynstat_wvel_max             =   6.6736446215327E-15
(PID.TID 0000.0001) %MON dynstat_wvel_min             =  -6.6736446215327E-15
(PID.TID 0000.0001) %MON dynstat_wvel_mean            =   2.3939844639623E-19
(PID.TID 0000.0001) %MON dynstat_wvel_sd              =   1.5089012586666E-15
(PID.TID 0000.0001) %MON dynstat_wvel_del2            =   1.4563361156032E-15
(PID.TID 0000.0001) %MON dynstat_theta_max            =   1.8898608993610E+00
(PID.TID 0000.0001) %MON dynstat_theta_min            =   9.9985882841696E-01
(PID.TID 0000.0001) %MON dynstat_theta_mean           =   1.0066888037826E+00
(PID.TID 0000.0001) %MON dynstat_theta_sd             =   5.9301107369242E-02
(PID.TID 0000.0001) %MON dynstat_theta_del2           =   4.1266218244197E-04
(PID.TID 0000.0001) %MON dynstat_salt_max             =   1.9161407331432E+00
(PID.TID 0000.0001) %MON dynstat_salt_min             =   9.9954636396311E-01
(PID.TID 0000.0001) %MON dynstat_salt_mean            =   1.0066901484881E+00
(PID.TID 0000.0001) %MON dynstat_salt_sd              =   5.9992532622327E-02
(PID.TID 0000.0001) %MON dynstat_salt_del2            =   4.2639051457741E-04
(PID.TID 0000.0001) %MON advcfl_uvel_max              =   1.0240615062181E+00
(PID.TID 0000.0001) %MON advcfl_vvel_max              =   1.0240615062181E+00
(PID.TID 0000.0001) %MON advcfl_wvel_max              =   4.8050241275036E-16
(PID.TID 0000.0001) %MON advcfl_W_hf_max              =   0.0000000000000E+00
(PID.TID 0000.0001) %MON pe_b_mean                    =   0.0000000000000E+00
(PID.TID 0000.0001) %MON ke_max                       =   7.4475958662786E+02
(PID.TID 0000.0001) %MON ke_mean                      =   4.9660795630338E+02
(PID.TID 0000.0001) %MON ke_vol                       =   5.0990436378172E+19
(PID.TID 0000.0001) %MON vort_r_min                   =  -1.2114474455529E-05
(PID.TID 0000.0001) %MON vort_r_max                   =   1.2114474455529E-05
(PID.TID 0000.0001) %MON vort_a_mean                  =   2.4513551737851E-21
(PID.TID 0000.0001) %MON vort_a_sd                    =   9.0967845104703E-05
(PID.TID 0000.0001) %MON vort_p_mean                  =   2.4513551737851E-21
(PID.TID 0000.0001) %MON vort_p_sd                    =   9.0967845104703E-05
(PID.TID 0000.0001) %MON surfExpan_theta_mean         =   2.4970952620648E-19
(PID.TID 0000.0001) %MON surfExpan_salt_mean          =   3.0569184345249E-19
(PID.TID 0000.0001) // =======================================================
(PID.TID 0000.0001) // End MONITOR dynamic field statistics
(PID.TID 0000.0001) // =======================================================
(PID.TID 0000.0001) // =======================================================
(PID.TID 0000.0001) // Begin MONITOR dynamic field statistics
(PID.TID 0000.0001) // =======================================================
(PID.TID 0000.0001) %MON time_tsnumber                =                    78
(PID.TID 0000.0001) %MON time_secondsf                =   2.8080000000000E+05
(PID.TID 0000.0001) %MON dynstat_eta_max              =   0.0000000000000E+00
(PID.TID 0000.0001) %MON dynstat_eta_min              =   0.0000000000000E+00
(PID.TID 0000.0001) %MON dynstat_eta_mean             =   0.0000000000000E+00
(PID.TID 0000.0001) %MON dynstat_eta_sd               =   0.0000000000000E+00
(PID.TID 0000.0001) %MON dynstat_eta_del2             =   0.0000000000000E+00
(PID.TID 0000.0001) %MON dynstat_uvel_max             =   3.8588909729197E+01
(PID.TID 0000.0001) %MON dynstat_uvel_min             =  -2.6640751857532E+01
(PID.TID 0000.0001) %MON dynstat_uvel_mean            =   1.1767801879505E+01
(PID.TID 0000.0001) %MON dynstat_uvel_sd              =   1.8925337749668E+01
(PID.TID 0000.0001) %MON dynstat_uvel_del2            =   3.3980387131857E-02
(PID.TID 0000.0001) %MON dynstat_vvel_max             =   3.8588909729197E+01
(PID.TID 0000.0001) %MON dynstat_vvel_min             =  -2.6640751857532E+01
(PID.TID 0000.0001) %MON dynstat_vvel_mean            =   1.1767801879505E+01
(PID.TID 0000.0001) %MON dynstat_vvel_sd              =   1.8925337749668E+01
(PID.TID 0000.0001) %MON dynstat_vvel_del2            =   3.3980387131857E-02
(PID.TID 0000.0001) %MON dynstat_wvel_max             =   6.6736446215327E-15
(PID.TID 0000.0001) %MON dynstat_wvel_min             =  -6.6736446215327E-15
(PID.TID 0000.0001) %MON dynstat_wvel_mean            =   2.3939844639623E-19
(PID.TID 0000.0001) %MON dynstat_wvel_sd              =   1.5089012586666E-15
(PID.TID 0000.0001) %MON dynstat_wvel_del2            =   1.4563361156032E-15
(PID.TID 0000.0001) %MON dynstat_theta_max            =   1.8885945167005E+00
(PID.TID 0000.0001) %MON dynstat_theta_min            =   9.9989705097078E-01
(PID.TID 0000.0001) %MON dynstat_theta_mean           =   1.0066888037826E+00
(PID.TID 0000.0001) %MON dynstat_theta_sd             =   5.9104218865480E-02
(PID.TID 0000.0001) %MON dynstat_theta_del2           =   4.0690914450551E-04
(PID.TID 0000.0001) %MON dynstat_salt_max             =   1.9095166134728E+00
(PID.TID 0000.0001) %MON dynstat_salt_min             =   9.9964054378119E-01
(PID.TID 0000.0001) %MON dynstat_salt_mean            =   1.0066901484881E+00
(PID.TID 0000.0001) %MON dynstat_salt_sd              =   5.9816142216539E-02
(PID.TID 0000.0001) %MON dynstat_salt_del2            =   4.2430320165132E-04
(PID.TID 0000.0001) %MON advcfl_uvel_max              =   1.0240615062181E+00
(PID.TID 0000.0001) %MON advcfl_vvel_max              =   1.0240615062181E+00
(PID.TID 0000.0001) %MON advcfl_wvel_max              =   4.8050241275036E-16
(PID.TID 0000.0001) %MON advcfl_W_hf_max              =   0.0000000000000E+00
(PID.TID 0000.0001) %MON pe_b_mean                    =   0.0000000000000E+00
(PID.TID 0000.0001) %MON ke_max                       =   7.4475958662786E+02
(PID.TID 0000.0001) %MON ke_mean                      =   4.9660795630338E+02
(PID.TID 0000.0001) %MON ke_vol                       =   5.0990436378172E+19
(PID.TID 0000.0001) %MON vort_r_min                   =  -1.2114474455529E-05
(PID.TID 0000.0001) %MON vort_r_max                   =   1.2114474455529E-05
(PID.TID 0000.0001) %MON vort_a_mean                  =   2.4513551737851E-21
(PID.TID 0000.0001) %MON vort_a_sd                    =   9.0967845104703E-05
(PID.TID 0000.0001) %MON vort_p_mean                  =   2.4513551737851E-21
(PID.TID 0000.0001) %MON vort_p_sd                    =   9.0967845104703E-05
(PID.TID 0000.0001) %MON surfExpan_theta_mean         =   5.7994643710062E-19
(PID.TID 0000.0001) %MON surfExpan_salt_mean          =   3.4799610051339E-19
(PID.TID 0000.0001) // =======================================================
(PID.TID 0000.0001) // End MONITOR dynamic field statistics
(PID.TID 0000.0001) // =======================================================
(PID.TID 0000.0001) // =======================================================
(PID.TID 0000.0001) // Begin MONITOR dynamic field statistics
(PID.TID 0000.0001) // =======================================================
(PID.TID 0000.0001) %MON time_tsnumber                =                    84
(PID.TID 0000.0001) %MON time_secondsf                =   3.0240000000000E+05
(PID.TID 0000.0001) %MON dynstat_eta_max              =   0.0000000000000E+00
(PID.TID 0000.0001) %MON dynstat_eta_min              =   0.0000000000000E+00
(PID.TID 0000.0001) %MON dynstat_eta_mean             =   0.0000000000000E+00
(PID.TID 0000.0001) %MON dynstat_eta_sd               =   0.0000000000000E+00
(PID.TID 0000.0001) %MON dynstat_eta_del2             =   0.0000000000000E+00
(PID.TID 0000.0001) %MON dynstat_uvel_max             =   3.8588909729197E+01
(PID.TID 0000.0001) %MON dynstat_uvel_min             =  -2.6640751857532E+01
(PID.TID 0000.0001) %MON dynstat_uvel_mean            =   1.1767801879505E+01
(PID.TID 0000.0001) %MON dynstat_uvel_sd              =   1.8925337749668E+01
(PID.TID 0000.0001) %MON dynstat_uvel_del2            =   3.3980387131857E-02
(PID.TID 0000.0001) %MON dynstat_vvel_max             =   3.8588909729197E+01
(PID.TID 0000.0001) %MON dynstat_vvel_min             =  -2.6640751857532E+01
(PID.TID 0000.0001) %MON dynstat_vvel_mean            =   1.1767801879505E+01
(PID.TID 0000.0001) %MON dynstat_vvel_sd              =   1.8925337749668E+01
(PID.TID 0000.0001) %MON dynstat_vvel_del2            =   3.3980387131857E-02
(PID.TID 0000.0001) %MON dynstat_wvel_max             =   6.6736446215327E-15
(PID.TID 0000.0001) %MON dynstat_wvel_min             =  -6.6736446215327E-15
(PID.TID 0000.0001) %MON dynstat_wvel_mean            =   2.3939844639623E-19
(PID.TID 0000.0001) %MON dynstat_wvel_sd              =   1.5089012586666E-15
(PID.TID 0000.0001) %MON dynstat_wvel_del2            =   1.4563361156032E-15
(PID.TID 0000.0001) %MON dynstat_theta_max            =   1.8829772683671E+00
(PID.TID 0000.0001) %MON dynstat_theta_min            =   9.9990626114372E-01
(PID.TID 0000.0001) %MON dynstat_theta_mean           =   1.0066888037826E+00
(PID.TID 0000.0001) %MON dynstat_theta_sd             =   5.8915574725046E-02
(PID.TID 0000.0001) %MON dynstat_theta_del2           =   4.0766910926809E-04
(PID.TID 0000.0001) %MON dynstat_salt_max             =   1.9073845254660E+00
(PID.TID 0000.0001) %MON dynstat_salt_min             =   9.9966758221975E-01
(PID.TID 0000.0001) %MON dynstat_salt_mean            =   1.0066901484881E+00
(PID.TID 0000.0001) %MON dynstat_salt_sd              =   5.9638469879884E-02
(PID.TID 0000.0001) %MON dynstat_salt_del2            =   4.2112055240904E-04
(PID.TID 0000.0001) %MON advcfl_uvel_max              =   1.0240615062181E+00
(PID.TID 0000.0001) %MON advcfl_vvel_max              =   1.0240615062181E+00
(PID.TID 0000.0001) %MON advcfl_wvel_max              =   4.8050241275036E-16
(PID.TID 0000.0001) %MON advcfl_W_hf_max              =   0.0000000000000E+00
(PID.TID 0000.0001) %MON pe_b_mean                    =   0.0000000000000E+00
(PID.TID 0000.0001) %MON ke_max                       =   7.4475958662786E+02
(PID.TID 0000.0001) %MON ke_mean                      =   4.9660795630338E+02
(PID.TID 0000.0001) %MON ke_vol                       =   5.0990436378172E+19
(PID.TID 0000.0001) %MON vort_r_min                   =  -1.2114474455529E-05
(PID.TID 0000.0001) %MON vort_r_max                   =   1.2114474455529E-05
(PID.TID 0000.0001) %MON vort_a_mean                  =   2.4513551737851E-21
(PID.TID 0000.0001) %MON vort_a_sd                    =   9.0967845104703E-05
(PID.TID 0000.0001) %MON vort_p_mean                  =   2.4513551737851E-21
(PID.TID 0000.0001) %MON vort_p_sd                    =   9.0967845104703E-05
(PID.TID 0000.0001) %MON surfExpan_theta_mean         =   1.1061567934573E-18
(PID.TID 0000.0001) %MON surfExpan_salt_mean          =   5.9497658569380E-19
(PID.TID 0000.0001) // =======================================================
(PID.TID 0000.0001) // End MONITOR dynamic field statistics
(PID.TID 0000.0001) // =======================================================
(PID.TID 0000.0001) // =======================================================
(PID.TID 0000.0001) // Begin MONITOR dynamic field statistics
(PID.TID 0000.0001) // =======================================================
(PID.TID 0000.0001) %MON time_tsnumber                =                    90
(PID.TID 0000.0001) %MON time_secondsf                =   3.2400000000000E+05
(PID.TID 0000.0001) %MON dynstat_eta_max              =   0.0000000000000E+00
(PID.TID 0000.0001) %MON dynstat_eta_min              =   0.0000000000000E+00
(PID.TID 0000.0001) %MON dynstat_eta_mean             =   0.0000000000000E+00
(PID.TID 0000.0001) %MON dynstat_eta_sd               =   0.0000000000000E+00
(PID.TID 0000.0001) %MON dynstat_eta_del2             =   0.0000000000000E+00
(PID.TID 0000.0001) %MON dynstat_uvel_max             =   3.8588909729197E+01
(PID.TID 0000.0001) %MON dynstat_uvel_min             =  -2.6640751857532E+01
(PID.TID 0000.0001) %MON dynstat_uvel_mean            =   1.1767801879505E+01
(PID.TID 0000.0001) %MON dynstat_uvel_sd              =   1.8925337749668E+01
(PID.TID 0000.0001) %MON dynstat_uvel_del2            =   3.3980387131857E-02
(PID.TID 0000.0001) %MON dynstat_vvel_max             =   3.8588909729197E+01
(PID.TID 0000.0001) %MON dynstat_vvel_min             =  -2.6640751857532E+01
(PID.TID 0000.0001) %MON dynstat_vvel_mean            =   1.1767801879505E+01
(PID.TID 0000.0001) %MON dynstat_vvel_sd              =   1.8925337749668E+01
(PID.TID 0000.0001) %MON dynstat_vvel_del2            =   3.3980387131857E-02
(PID.TID 0000.0001) %MON dynstat_wvel_max             =   6.6736446215327E-15
(PID.TID 0000.0001) %MON dynstat_wvel_min             =  -6.6736446215327E-15
(PID.TID 0000.0001) %MON dynstat_wvel_mean            =   2.3939844639623E-19
(PID.TID 0000.0001) %MON dynstat_wvel_sd              =   1.5089012586666E-15
(PID.TID 0000.0001) %MON dynstat_wvel_del2            =   1.4563361156032E-15
(PID.TID 0000.0001) %MON dynstat_theta_max            =   1.8770695646023E+00
(PID.TID 0000.0001) %MON dynstat_theta_min            =   9.9992040846960E-01
(PID.TID 0000.0001) %MON dynstat_theta_mean           =   1.0066888037826E+00
(PID.TID 0000.0001) %MON dynstat_theta_sd             =   5.8736114184200E-02
(PID.TID 0000.0001) %MON dynstat_theta_del2           =   4.0538373851347E-04
(PID.TID 0000.0001) %MON dynstat_salt_max             =   1.8958129800531E+00
(PID.TID 0000.0001) %MON dynstat_salt_min             =   9.9972970149035E-01
(PID.TID 0000.0001) %MON dynstat_salt_mean            =   1.0066901484881E+00
(PID.TID 0000.0001) %MON dynstat_salt_sd              =   5.9465332252311E-02
(PID.TID 0000.0001) %MON dynstat_salt_del2            =   4.2121372820213E-04
(PID.TID 0000.0001) %MON advcfl_uvel_max              =   1.0240615062181E+00
(PID.TID 0000.0001) %MON advcfl_vvel_max              =   1.0240615062181E+00
(PID.TID 0000.0001) %MON advcfl_wvel_max              =   4.8050241275036E-16
(PID.TID 0000.0001) %MON advcfl_W_hf_max              =   0.0000000000000E+00
(PID.TID 0000.0001) %MON pe_b_mean                    =   0.0000000000000E+00
(PID.TID 0000.0001) %MON ke_max                       =   7.4475958662786E+02
(PID.TID 0000.0001) %MON ke_mean                      =   4.9660795630338E+02
(PID.TID 0000.0001) %MON ke_vol                       =   5.0990436378172E+19
(PID.TID 0000.0001) %MON vort_r_min                   =  -1.2114474455529E-05
(PID.TID 0000.0001) %MON vort_r_max                   =   1.2114474455529E-05
(PID.TID 0000.0001) %MON vort_a_mean                  =   2.4513551737851E-21
(PID.TID 0000.0001) %MON vort_a_sd                    =   9.0967845104703E-05
(PID.TID 0000.0001) %MON vort_p_mean                  =   2.4513551737851E-21
(PID.TID 0000.0001) %MON vort_p_sd                    =   9.0967845104703E-05
(PID.TID 0000.0001) %MON surfExpan_theta_mean         =   1.2725693325550E-18
(PID.TID 0000.0001) %MON surfExpan_salt_mean          =   6.9380059660155E-19
(PID.TID 0000.0001) // =======================================================
(PID.TID 0000.0001) // End MONITOR dynamic field statistics
(PID.TID 0000.0001) // =======================================================
(PID.TID 0000.0001) // =======================================================
(PID.TID 0000.0001) // Begin MONITOR dynamic field statistics
(PID.TID 0000.0001) // =======================================================
(PID.TID 0000.0001) %MON time_tsnumber                =                    96
(PID.TID 0000.0001) %MON time_secondsf                =   3.4560000000000E+05
(PID.TID 0000.0001) %MON dynstat_eta_max              =   0.0000000000000E+00
(PID.TID 0000.0001) %MON dynstat_eta_min              =   0.0000000000000E+00
(PID.TID 0000.0001) %MON dynstat_eta_mean             =   0.0000000000000E+00
(PID.TID 0000.0001) %MON dynstat_eta_sd               =   0.0000000000000E+00
(PID.TID 0000.0001) %MON dynstat_eta_del2             =   0.0000000000000E+00
(PID.TID 0000.0001) %MON dynstat_uvel_max             =   3.8588909729197E+01
(PID.TID 0000.0001) %MON dynstat_uvel_min             =  -2.6640751857532E+01
(PID.TID 0000.0001) %MON dynstat_uvel_mean            =   1.1767801879505E+01
(PID.TID 0000.0001) %MON dynstat_uvel_sd              =   1.8925337749668E+01
(PID.TID 0000.0001) %MON dynstat_uvel_del2            =   3.3980387131857E-02
(PID.TID 0000.0001) %MON dynstat_vvel_max             =   3.8588909729197E+01
(PID.TID 0000.0001) %MON dynstat_vvel_min             =  -2.6640751857532E+01
(PID.TID 0000.0001) %MON dynstat_vvel_mean            =   1.1767801879505E+01
(PID.TID 0000.0001) %MON dynstat_vvel_sd              =   1.8925337749668E+01
(PID.TID 0000.0001) %MON dynstat_vvel_del2            =   3.3980387131857E-02
(PID.TID 0000.0001) %MON dynstat_wvel_max             =   6.6736446215327E-15
(PID.TID 0000.0001) %MON dynstat_wvel_min             =  -6.6736446215327E-15
(PID.TID 0000.0001) %MON dynstat_wvel_mean            =   2.3939844639623E-19
(PID.TID 0000.0001) %MON dynstat_wvel_sd              =   1.5089012586666E-15
(PID.TID 0000.0001) %MON dynstat_wvel_del2            =   1.4563361156032E-15
(PID.TID 0000.0001) %MON dynstat_theta_max            =   1.8728512140977E+00
(PID.TID 0000.0001) %MON dynstat_theta_min            =   9.9993753110575E-01
(PID.TID 0000.0001) %MON dynstat_theta_mean           =   1.0066888037826E+00
(PID.TID 0000.0001) %MON dynstat_theta_sd             =   5.8570356062574E-02
(PID.TID 0000.0001) %MON dynstat_theta_del2           =   4.0383573121543E-04
(PID.TID 0000.0001) %MON dynstat_salt_max             =   1.8936484303566E+00
(PID.TID 0000.0001) %MON dynstat_salt_min             =   9.9978047781647E-01
(PID.TID 0000.0001) %MON dynstat_salt_mean            =   1.0066901484881E+00
(PID.TID 0000.0001) %MON dynstat_salt_sd              =   5.9300231182266E-02
(PID.TID 0000.0001) %MON dynstat_salt_del2            =   4.2459774402100E-04
(PID.TID 0000.0001) %MON advcfl_uvel_max              =   1.0240615062181E+00
(PID.TID 0000.0001) %MON advcfl_vvel_max              =   1.0240615062181E+00
(PID.TID 0000.0001) %MON advcfl_wvel_max              =   4.8050241275036E-16
(PID.TID 0000.0001) %MON advcfl_W_hf_max              =   0.0000000000000E+00
(PID.TID 0000.0001) %MON pe_b_mean                    =   0.0000000000000E+00
(PID.TID 0000.0001) %MON ke_max                       =   7.4475958662786E+02
(PID.TID 0000.0001) %MON ke_mean                      =   4.9660795630338E+02
(PID.TID 0000.0001) %MON ke_vol                       =   5.0990436378172E+19
(PID.TID 0000.0001) %MON vort_r_min                   =  -1.2114474455529E-05
(PID.TID 0000.0001) %MON vort_r_max                   =   1.2114474455529E-05
(PID.TID 0000.0001) %MON vort_a_mean                  =   2.4513551737851E-21
(PID.TID 0000.0001) %MON vort_a_sd                    =   9.0967845104703E-05
(PID.TID 0000.0001) %MON vort_p_mean                  =   2.4513551737851E-21
(PID.TID 0000.0001) %MON vort_p_sd                    =   9.0967845104703E-05
(PID.TID 0000.0001) %MON surfExpan_theta_mean         =   2.3387801598496E-19
(PID.TID 0000.0001) %MON surfExpan_salt_mean          =   2.8223890109891E-19
(PID.TID 0000.0001) // =======================================================
(PID.TID 0000.0001) // End MONITOR dynamic field statistics
(PID.TID 0000.0001) // =======================================================
(PID.TID 0000.0001) // =======================================================
(PID.TID 0000.0001) // Begin MONITOR dynamic field statistics
(PID.TID 0000.0001) // =======================================================
(PID.TID 0000.0001) %MON time_tsnumber                =                   102
(PID.TID 0000.0001) %MON time_secondsf                =   3.6720000000000E+05
(PID.TID 0000.0001) %MON dynstat_eta_max              =   0.0000000000000E+00
(PID.TID 0000.0001) %MON dynstat_eta_min              =   0.0000000000000E+00
(PID.TID 0000.0001) %MON dynstat_eta_mean             =   0.0000000000000E+00
(PID.TID 0000.0001) %MON dynstat_eta_sd               =   0.0000000000000E+00
(PID.TID 0000.0001) %MON dynstat_eta_del2             =   0.0000000000000E+00
(PID.TID 0000.0001) %MON dynstat_uvel_max             =   3.8588909729197E+01
(PID.TID 0000.0001) %MON dynstat_uvel_min             =  -2.6640751857532E+01
(PID.TID 0000.0001) %MON dynstat_uvel_mean            =   1.1767801879505E+01
(PID.TID 0000.0001) %MON dynstat_uvel_sd              =   1.8925337749668E+01
(PID.TID 0000.0001) %MON dynstat_uvel_del2            =   3.3980387131857E-02
(PID.TID 0000.0001) %MON dynstat_vvel_max             =   3.8588909729197E+01
(PID.TID 0000.0001) %MON dynstat_vvel_min             =  -2.6640751857532E+01
(PID.TID 0000.0001) %MON dynstat_vvel_mean            =   1.1767801879505E+01
(PID.TID 0000.0001) %MON dynstat_vvel_sd              =   1.8925337749668E+01
(PID.TID 0000.0001) %MON dynstat_vvel_del2            =   3.3980387131857E-02
(PID.TID 0000.0001) %MON dynstat_wvel_max             =   6.6736446215327E-15
(PID.TID 0000.0001) %MON dynstat_wvel_min             =  -6.6736446215327E-15
(PID.TID 0000.0001) %MON dynstat_wvel_mean            =   2.3939844639623E-19
(PID.TID 0000.0001) %MON dynstat_wvel_sd              =   1.5089012586666E-15
(PID.TID 0000.0001) %MON dynstat_wvel_del2            =   1.4563361156032E-15
(PID.TID 0000.0001) %MON dynstat_theta_max            =   1.8705549563759E+00
(PID.TID 0000.0001) %MON dynstat_theta_min            =   9.9994039544604E-01
(PID.TID 0000.0001) %MON dynstat_theta_mean           =   1.0066888037826E+00
(PID.TID 0000.0001) %MON dynstat_theta_sd             =   5.8419531085295E-02
(PID.TID 0000.0001) %MON dynstat_theta_del2           =   4.0215635963049E-04
(PID.TID 0000.0001) %MON dynstat_salt_max             =   1.8916357551840E+00
(PID.TID 0000.0001) %MON dynstat_salt_min             =   9.9981015684557E-01
(PID.TID 0000.0001) %MON dynstat_salt_mean            =   1.0066901484881E+00
(PID.TID 0000.0001) %MON dynstat_salt_sd              =   5.9176485890150E-02
(PID.TID 0000.0001) %MON dynstat_salt_del2            =   4.3930047889240E-04
(PID.TID 0000.0001) %MON advcfl_uvel_max              =   1.0240615062181E+00
(PID.TID 0000.0001) %MON advcfl_vvel_max              =   1.0240615062181E+00
(PID.TID 0000.0001) %MON advcfl_wvel_max              =   4.8050241275036E-16
(PID.TID 0000.0001) %MON advcfl_W_hf_max              =   0.0000000000000E+00
(PID.TID 0000.0001) %MON pe_b_mean                    =   0.0000000000000E+00
(PID.TID 0000.0001) %MON ke_max                       =   7.4475958662786E+02
(PID.TID 0000.0001) %MON ke_mean                      =   4.9660795630338E+02
(PID.TID 0000.0001) %MON ke_vol                       =   5.0990436378172E+19
(PID.TID 0000.0001) %MON vort_r_min                   =  -1.2114474455529E-05
(PID.TID 0000.0001) %MON vort_r_max                   =   1.2114474455529E-05
(PID.TID 0000.0001) %MON vort_a_mean                  =   2.4513551737851E-21
(PID.TID 0000.0001) %MON vort_a_sd                    =   9.0967845104703E-05
(PID.TID 0000.0001) %MON vort_p_mean                  =   2.4513551737851E-21
(PID.TID 0000.0001) %MON vort_p_sd                    =   9.0967845104703E-05
(PID.TID 0000.0001) %MON surfExpan_theta_mean         =  -3.1216929586581E-19
(PID.TID 0000.0001) %MON surfExpan_salt_mean          =  -7.6570804262668E-20
(PID.TID 0000.0001) // =======================================================
(PID.TID 0000.0001) // End MONITOR dynamic field statistics
(PID.TID 0000.0001) // =======================================================
(PID.TID 0000.0001) // =======================================================
(PID.TID 0000.0001) // Begin MONITOR dynamic field statistics
(PID.TID 0000.0001) // =======================================================
(PID.TID 0000.0001) %MON time_tsnumber                =                   108
(PID.TID 0000.0001) %MON time_secondsf                =   3.8880000000000E+05
(PID.TID 0000.0001) %MON dynstat_eta_max              =   0.0000000000000E+00
(PID.TID 0000.0001) %MON dynstat_eta_min              =   0.0000000000000E+00
(PID.TID 0000.0001) %MON dynstat_eta_mean             =   0.0000000000000E+00
(PID.TID 0000.0001) %MON dynstat_eta_sd               =   0.0000000000000E+00
(PID.TID 0000.0001) %MON dynstat_eta_del2             =   0.0000000000000E+00
(PID.TID 0000.0001) %MON dynstat_uvel_max             =   3.8588909729197E+01
(PID.TID 0000.0001) %MON dynstat_uvel_min             =  -2.6640751857532E+01
(PID.TID 0000.0001) %MON dynstat_uvel_mean            =   1.1767801879505E+01
(PID.TID 0000.0001) %MON dynstat_uvel_sd              =   1.8925337749668E+01
(PID.TID 0000.0001) %MON dynstat_uvel_del2            =   3.3980387131857E-02
(PID.TID 0000.0001) %MON dynstat_vvel_max             =   3.8588909729197E+01
(PID.TID 0000.0001) %MON dynstat_vvel_min             =  -2.6640751857532E+01
(PID.TID 0000.0001) %MON dynstat_vvel_mean            =   1.1767801879505E+01
(PID.TID 0000.0001) %MON dynstat_vvel_sd              =   1.8925337749668E+01
(PID.TID 0000.0001) %MON dynstat_vvel_del2            =   3.3980387131857E-02
(PID.TID 0000.0001) %MON dynstat_wvel_max             =   6.6736446215327E-15
(PID.TID 0000.0001) %MON dynstat_wvel_min             =  -6.6736446215327E-15
(PID.TID 0000.0001) %MON dynstat_wvel_mean            =   2.3939844639623E-19
(PID.TID 0000.0001) %MON dynstat_wvel_sd              =   1.5089012586666E-15
(PID.TID 0000.0001) %MON dynstat_wvel_del2            =   1.4563361156032E-15
(PID.TID 0000.0001) %MON dynstat_theta_max            =   1.8639843726882E+00
(PID.TID 0000.0001) %MON dynstat_theta_min            =   9.9994621520387E-01
(PID.TID 0000.0001) %MON dynstat_theta_mean           =   1.0066888037826E+00
(PID.TID 0000.0001) %MON dynstat_theta_sd             =   5.8281424983328E-02
(PID.TID 0000.0001) %MON dynstat_theta_del2           =   3.9962114208618E-04
(PID.TID 0000.0001) %MON dynstat_salt_max             =   1.8898624852541E+00
(PID.TID 0000.0001) %MON dynstat_salt_min             =   9.9982960484841E-01
(PID.TID 0000.0001) %MON dynstat_salt_mean            =   1.0066901484881E+00
(PID.TID 0000.0001) %MON dynstat_salt_sd              =   5.9096800897350E-02
(PID.TID 0000.0001) %MON dynstat_salt_del2            =   4.2660914593226E-04
(PID.TID 0000.0001) %MON advcfl_uvel_max              =   1.0240615062181E+00
(PID.TID 0000.0001) %MON advcfl_vvel_max              =   1.0240615062181E+00
(PID.TID 0000.0001) %MON advcfl_wvel_max              =   4.8050241275036E-16
(PID.TID 0000.0001) %MON advcfl_W_hf_max              =   0.0000000000000E+00
(PID.TID 0000.0001) %MON pe_b_mean                    =   0.0000000000000E+00
(PID.TID 0000.0001) %MON ke_max                       =   7.4475958662786E+02
(PID.TID 0000.0001) %MON ke_mean                      =   4.9660795630338E+02
(PID.TID 0000.0001) %MON ke_vol                       =   5.0990436378172E+19
(PID.TID 0000.0001) %MON vort_r_min                   =  -1.2114474455529E-05
(PID.TID 0000.0001) %MON vort_r_max                   =   1.2114474455529E-05
(PID.TID 0000.0001) %MON vort_a_mean                  =   2.4513551737851E-21
(PID.TID 0000.0001) %MON vort_a_sd                    =   9.0967845104703E-05
(PID.TID 0000.0001) %MON vort_p_mean                  =   2.4513551737851E-21
(PID.TID 0000.0001) %MON vort_p_sd                    =   9.0967845104703E-05
(PID.TID 0000.0001) %MON surfExpan_theta_mean         =   2.3024370674047E-19
(PID.TID 0000.0001) %MON surfExpan_salt_mean          =  -1.2906420138453E-20
(PID.TID 0000.0001) // =======================================================
(PID.TID 0000.0001) // End MONITOR dynamic field statistics
(PID.TID 0000.0001) // =======================================================
(PID.TID 0000.0001) // =======================================================
(PID.TID 0000.0001) // Begin MONITOR dynamic field statistics
(PID.TID 0000.0001) // =======================================================
(PID.TID 0000.0001) %MON time_tsnumber                =                   114
(PID.TID 0000.0001) %MON time_secondsf                =   4.1040000000000E+05
(PID.TID 0000.0001) %MON dynstat_eta_max              =   0.0000000000000E+00
(PID.TID 0000.0001) %MON dynstat_eta_min              =   0.0000000000000E+00
(PID.TID 0000.0001) %MON dynstat_eta_mean             =   0.0000000000000E+00
(PID.TID 0000.0001) %MON dynstat_eta_sd               =   0.0000000000000E+00
(PID.TID 0000.0001) %MON dynstat_eta_del2             =   0.0000000000000E+00
(PID.TID 0000.0001) %MON dynstat_uvel_max             =   3.8588909729197E+01
(PID.TID 0000.0001) %MON dynstat_uvel_min             =  -2.6640751857532E+01
(PID.TID 0000.0001) %MON dynstat_uvel_mean            =   1.1767801879505E+01
(PID.TID 0000.0001) %MON dynstat_uvel_sd              =   1.8925337749668E+01
(PID.TID 0000.0001) %MON dynstat_uvel_del2            =   3.3980387131857E-02
(PID.TID 0000.0001) %MON dynstat_vvel_max             =   3.8588909729197E+01
(PID.TID 0000.0001) %MON dynstat_vvel_min             =  -2.6640751857532E+01
(PID.TID 0000.0001) %MON dynstat_vvel_mean            =   1.1767801879505E+01
(PID.TID 0000.0001) %MON dynstat_vvel_sd              =   1.8925337749668E+01
(PID.TID 0000.0001) %MON dynstat_vvel_del2            =   3.3980387131857E-02
(PID.TID 0000.0001) %MON dynstat_wvel_max             =   6.6736446215327E-15
(PID.TID 0000.0001) %MON dynstat_wvel_min             =  -6.6736446215327E-15
(PID.TID 0000.0001) %MON dynstat_wvel_mean            =   2.3939844639623E-19
(PID.TID 0000.0001) %MON dynstat_wvel_sd              =   1.5089012586666E-15
(PID.TID 0000.0001) %MON dynstat_wvel_del2            =   1.4563361156032E-15
(PID.TID 0000.0001) %MON dynstat_theta_max            =   1.8633954703404E+00
(PID.TID 0000.0001) %MON dynstat_theta_min            =   9.9995049504534E-01
(PID.TID 0000.0001) %MON dynstat_theta_mean           =   1.0066888037826E+00
(PID.TID 0000.0001) %MON dynstat_theta_sd             =   5.8143945090017E-02
(PID.TID 0000.0001) %MON dynstat_theta_del2           =   3.9875761357544E-04
(PID.TID 0000.0001) %MON dynstat_salt_max             =   1.8909645877381E+00
(PID.TID 0000.0001) %MON dynstat_salt_min             =   9.9984471724990E-01
(PID.TID 0000.0001) %MON dynstat_salt_mean            =   1.0066901484881E+00
(PID.TID 0000.0001) %MON dynstat_salt_sd              =   5.8992433658551E-02
(PID.TID 0000.0001) %MON dynstat_salt_del2            =   4.1911549690266E-04
(PID.TID 0000.0001) %MON advcfl_uvel_max              =   1.0240615062181E+00
(PID.TID 0000.0001) %MON advcfl_vvel_max              =   1.0240615062181E+00
(PID.TID 0000.0001) %MON advcfl_wvel_max              =   4.8050241275036E-16
(PID.TID 0000.0001) %MON advcfl_W_hf_max              =   0.0000000000000E+00
(PID.TID 0000.0001) %MON pe_b_mean                    =   0.0000000000000E+00
(PID.TID 0000.0001) %MON ke_max                       =   7.4475958662786E+02
(PID.TID 0000.0001) %MON ke_mean                      =   4.9660795630338E+02
(PID.TID 0000.0001) %MON ke_vol                       =   5.0990436378172E+19
(PID.TID 0000.0001) %MON vort_r_min                   =  -1.2114474455529E-05
(PID.TID 0000.0001) %MON vort_r_max                   =   1.2114474455529E-05
(PID.TID 0000.0001) %MON vort_a_mean                  =   2.4513551737851E-21
(PID.TID 0000.0001) %MON vort_a_sd                    =   9.0967845104703E-05
(PID.TID 0000.0001) %MON vort_p_mean                  =   2.4513551737851E-21
(PID.TID 0000.0001) %MON vort_p_sd                    =   9.0967845104703E-05
(PID.TID 0000.0001) %MON surfExpan_theta_mean         =   7.7777113464214E-19
(PID.TID 0000.0001) %MON surfExpan_salt_mean          =   1.1038345218985E-19
(PID.TID 0000.0001) // =======================================================
(PID.TID 0000.0001) // End MONITOR dynamic field statistics
(PID.TID 0000.0001) // =======================================================
(PID.TID 0000.0001) // =======================================================
(PID.TID 0000.0001) // Begin MONITOR dynamic field statistics
(PID.TID 0000.0001) // =======================================================
(PID.TID 0000.0001) %MON time_tsnumber                =                   120
(PID.TID 0000.0001) %MON time_secondsf                =   4.3200000000000E+05
(PID.TID 0000.0001) %MON dynstat_eta_max              =   0.0000000000000E+00
(PID.TID 0000.0001) %MON dynstat_eta_min              =   0.0000000000000E+00
(PID.TID 0000.0001) %MON dynstat_eta_mean             =   0.0000000000000E+00
(PID.TID 0000.0001) %MON dynstat_eta_sd               =   0.0000000000000E+00
(PID.TID 0000.0001) %MON dynstat_eta_del2             =   0.0000000000000E+00
(PID.TID 0000.0001) %MON dynstat_uvel_max             =   3.8588909729197E+01
(PID.TID 0000.0001) %MON dynstat_uvel_min             =  -2.6640751857532E+01
(PID.TID 0000.0001) %MON dynstat_uvel_mean            =   1.1767801879505E+01
(PID.TID 0000.0001) %MON dynstat_uvel_sd              =   1.8925337749668E+01
(PID.TID 0000.0001) %MON dynstat_uvel_del2            =   3.3980387131857E-02
(PID.TID 0000.0001) %MON dynstat_vvel_max             =   3.8588909729197E+01
(PID.TID 0000.0001) %MON dynstat_vvel_min             =  -2.6640751857532E+01
(PID.TID 0000.0001) %MON dynstat_vvel_mean            =   1.1767801879505E+01
(PID.TID 0000.0001) %MON dynstat_vvel_sd              =   1.8925337749668E+01
(PID.TID 0000.0001) %MON dynstat_vvel_del2            =   3.3980387131857E-02
(PID.TID 0000.0001) %MON dynstat_wvel_max             =   6.6736446215327E-15
(PID.TID 0000.0001) %MON dynstat_wvel_min             =  -6.6736446215327E-15
(PID.TID 0000.0001) %MON dynstat_wvel_mean            =   2.3939844639623E-19
(PID.TID 0000.0001) %MON dynstat_wvel_sd              =   1.5089012586666E-15
(PID.TID 0000.0001) %MON dynstat_wvel_del2            =   1.4563361156032E-15
(PID.TID 0000.0001) %MON dynstat_theta_max            =   1.8587769243465E+00
(PID.TID 0000.0001) %MON dynstat_theta_min            =   9.9995239235489E-01
(PID.TID 0000.0001) %MON dynstat_theta_mean           =   1.0066888037826E+00
(PID.TID 0000.0001) %MON dynstat_theta_sd             =   5.8006887375656E-02
(PID.TID 0000.0001) %MON dynstat_theta_del2           =   3.9776457740637E-04
(PID.TID 0000.0001) %MON dynstat_salt_max             =   1.8912628244355E+00
(PID.TID 0000.0001) %MON dynstat_salt_min             =   9.9985721930267E-01
(PID.TID 0000.0001) %MON dynstat_salt_mean            =   1.0066901484881E+00
(PID.TID 0000.0001) %MON dynstat_salt_sd              =   5.8863116316940E-02
(PID.TID 0000.0001) %MON dynstat_salt_del2            =   4.3132619863282E-04
(PID.TID 0000.0001) %MON advcfl_uvel_max              =   1.0240615062181E+00
(PID.TID 0000.0001) %MON advcfl_vvel_max              =   1.0240615062181E+00
(PID.TID 0000.0001) %MON advcfl_wvel_max              =   4.8050241275036E-16
(PID.TID 0000.0001) %MON advcfl_W_hf_max              =   0.0000000000000E+00
(PID.TID 0000.0001) %MON pe_b_mean                    =   0.0000000000000E+00
(PID.TID 0000.0001) %MON ke_max                       =   7.4475958662786E+02
(PID.TID 0000.0001) %MON ke_mean                      =   4.9660795630338E+02
(PID.TID 0000.0001) %MON ke_vol                       =   5.0990436378172E+19
(PID.TID 0000.0001) %MON vort_r_min                   =  -1.2114474455529E-05
(PID.TID 0000.0001) %MON vort_r_max                   =   1.2114474455529E-05
(PID.TID 0000.0001) %MON vort_a_mean                  =   2.4513551737851E-21
(PID.TID 0000.0001) %MON vort_a_sd                    =   9.0967845104703E-05
(PID.TID 0000.0001) %MON vort_p_mean                  =   2.4513551737851E-21
(PID.TID 0000.0001) %MON vort_p_sd                    =   9.0967845104703E-05
(PID.TID 0000.0001) %MON surfExpan_theta_mean         =   2.4321248304455E-19
(PID.TID 0000.0001) %MON surfExpan_salt_mean          =   1.4772124167538E-19
(PID.TID 0000.0001) // =======================================================
(PID.TID 0000.0001) // End MONITOR dynamic field statistics
(PID.TID 0000.0001) // =======================================================
(PID.TID 0000.0001) // =======================================================
(PID.TID 0000.0001) // Begin MONITOR dynamic field statistics
(PID.TID 0000.0001) // =======================================================
(PID.TID 0000.0001) %MON time_tsnumber                =                   126
(PID.TID 0000.0001) %MON time_secondsf                =   4.5360000000000E+05
(PID.TID 0000.0001) %MON dynstat_eta_max              =   0.0000000000000E+00
(PID.TID 0000.0001) %MON dynstat_eta_min              =   0.0000000000000E+00
(PID.TID 0000.0001) %MON dynstat_eta_mean             =   0.0000000000000E+00
(PID.TID 0000.0001) %MON dynstat_eta_sd               =   0.0000000000000E+00
(PID.TID 0000.0001) %MON dynstat_eta_del2             =   0.0000000000000E+00
(PID.TID 0000.0001) %MON dynstat_uvel_max             =   3.8588909729197E+01
(PID.TID 0000.0001) %MON dynstat_uvel_min             =  -2.6640751857532E+01
(PID.TID 0000.0001) %MON dynstat_uvel_mean            =   1.1767801879505E+01
(PID.TID 0000.0001) %MON dynstat_uvel_sd              =   1.8925337749668E+01
(PID.TID 0000.0001) %MON dynstat_uvel_del2            =   3.3980387131857E-02
(PID.TID 0000.0001) %MON dynstat_vvel_max             =   3.8588909729197E+01
(PID.TID 0000.0001) %MON dynstat_vvel_min             =  -2.6640751857532E+01
(PID.TID 0000.0001) %MON dynstat_vvel_mean            =   1.1767801879505E+01
(PID.TID 0000.0001) %MON dynstat_vvel_sd              =   1.8925337749668E+01
(PID.TID 0000.0001) %MON dynstat_vvel_del2            =   3.3980387131857E-02
(PID.TID 0000.0001) %MON dynstat_wvel_max             =   6.6736446215327E-15
(PID.TID 0000.0001) %MON dynstat_wvel_min             =  -6.6736446215327E-15
(PID.TID 0000.0001) %MON dynstat_wvel_mean            =   2.3939844639623E-19
(PID.TID 0000.0001) %MON dynstat_wvel_sd              =   1.5089012586666E-15
(PID.TID 0000.0001) %MON dynstat_wvel_del2            =   1.4563361156032E-15
(PID.TID 0000.0001) %MON dynstat_theta_max            =   1.8561308141349E+00
(PID.TID 0000.0001) %MON dynstat_theta_min            =   9.9995049794501E-01
(PID.TID 0000.0001) %MON dynstat_theta_mean           =   1.0066888037826E+00
(PID.TID 0000.0001) %MON dynstat_theta_sd             =   5.7866783162320E-02
(PID.TID 0000.0001) %MON dynstat_theta_del2           =   3.9306023793078E-04
(PID.TID 0000.0001) %MON dynstat_salt_max             =   1.8841852520899E+00
(PID.TID 0000.0001) %MON dynstat_salt_min             =   9.9986776084754E-01
(PID.TID 0000.0001) %MON dynstat_salt_mean            =   1.0066901484881E+00
(PID.TID 0000.0001) %MON dynstat_salt_sd              =   5.8740467673125E-02
(PID.TID 0000.0001) %MON dynstat_salt_del2            =   4.2277237412344E-04
(PID.TID 0000.0001) %MON advcfl_uvel_max              =   1.0240615062181E+00
(PID.TID 0000.0001) %MON advcfl_vvel_max              =   1.0240615062181E+00
(PID.TID 0000.0001) %MON advcfl_wvel_max              =   4.8050241275036E-16
(PID.TID 0000.0001) %MON advcfl_W_hf_max              =   0.0000000000000E+00
(PID.TID 0000.0001) %MON pe_b_mean                    =   0.0000000000000E+00
(PID.TID 0000.0001) %MON ke_max                       =   7.4475958662786E+02
(PID.TID 0000.0001) %MON ke_mean                      =   4.9660795630338E+02
(PID.TID 0000.0001) %MON ke_vol                       =   5.0990436378172E+19
(PID.TID 0000.0001) %MON vort_r_min                   =  -1.2114474455529E-05
(PID.TID 0000.0001) %MON vort_r_max                   =   1.2114474455529E-05
(PID.TID 0000.0001) %MON vort_a_mean                  =   2.4513551737851E-21
(PID.TID 0000.0001) %MON vort_a_sd                    =   9.0967845104703E-05
(PID.TID 0000.0001) %MON vort_p_mean                  =   2.4513551737851E-21
(PID.TID 0000.0001) %MON vort_p_sd                    =   9.0967845104703E-05
(PID.TID 0000.0001) %MON surfExpan_theta_mean         =  -7.3891186287658E-19
(PID.TID 0000.0001) %MON surfExpan_salt_mean          =   7.7780926910894E-20
(PID.TID 0000.0001) // =======================================================
(PID.TID 0000.0001) // End MONITOR dynamic field statistics
(PID.TID 0000.0001) // =======================================================
(PID.TID 0000.0001) // =======================================================
(PID.TID 0000.0001) // Begin MONITOR dynamic field statistics
(PID.TID 0000.0001) // =======================================================
(PID.TID 0000.0001) %MON time_tsnumber                =                   132
(PID.TID 0000.0001) %MON time_secondsf                =   4.7520000000000E+05
(PID.TID 0000.0001) %MON dynstat_eta_max              =   0.0000000000000E+00
(PID.TID 0000.0001) %MON dynstat_eta_min              =   0.0000000000000E+00
(PID.TID 0000.0001) %MON dynstat_eta_mean             =   0.0000000000000E+00
(PID.TID 0000.0001) %MON dynstat_eta_sd               =   0.0000000000000E+00
(PID.TID 0000.0001) %MON dynstat_eta_del2             =   0.0000000000000E+00
(PID.TID 0000.0001) %MON dynstat_uvel_max             =   3.8588909729197E+01
(PID.TID 0000.0001) %MON dynstat_uvel_min             =  -2.6640751857532E+01
(PID.TID 0000.0001) %MON dynstat_uvel_mean            =   1.1767801879505E+01
(PID.TID 0000.0001) %MON dynstat_uvel_sd              =   1.8925337749668E+01
(PID.TID 0000.0001) %MON dynstat_uvel_del2            =   3.3980387131857E-02
(PID.TID 0000.0001) %MON dynstat_vvel_max             =   3.8588909729197E+01
(PID.TID 0000.0001) %MON dynstat_vvel_min             =  -2.6640751857532E+01
(PID.TID 0000.0001) %MON dynstat_vvel_mean            =   1.1767801879505E+01
(PID.TID 0000.0001) %MON dynstat_vvel_sd              =   1.8925337749668E+01
(PID.TID 0000.0001) %MON dynstat_vvel_del2            =   3.3980387131857E-02
(PID.TID 0000.0001) %MON dynstat_wvel_max             =   6.6736446215327E-15
(PID.TID 0000.0001) %MON dynstat_wvel_min             =  -6.6736446215327E-15
(PID.TID 0000.0001) %MON dynstat_wvel_mean            =   2.3939844639623E-19
(PID.TID 0000.0001) %MON dynstat_wvel_sd              =   1.5089012586666E-15
(PID.TID 0000.0001) %MON dynstat_wvel_del2            =   1.4563361156032E-15
(PID.TID 0000.0001) %MON dynstat_theta_max            =   1.8499134052418E+00
(PID.TID 0000.0001) %MON dynstat_theta_min            =   9.9990913420122E-01
(PID.TID 0000.0001) %MON dynstat_theta_mean           =   1.0066888037826E+00
(PID.TID 0000.0001) %MON dynstat_theta_sd             =   5.7719708572053E-02
(PID.TID 0000.0001) %MON dynstat_theta_del2           =   3.9202993942589E-04
(PID.TID 0000.0001) %MON dynstat_salt_max             =   1.8812076438035E+00
(PID.TID 0000.0001) %MON dynstat_salt_min             =   9.9947132779647E-01
(PID.TID 0000.0001) %MON dynstat_salt_mean            =   1.0066901484881E+00
(PID.TID 0000.0001) %MON dynstat_salt_sd              =   5.8604307750265E-02
(PID.TID 0000.0001) %MON dynstat_salt_del2            =   4.0927392313635E-04
(PID.TID 0000.0001) %MON advcfl_uvel_max              =   1.0240615062181E+00
(PID.TID 0000.0001) %MON advcfl_vvel_max              =   1.0240615062181E+00
(PID.TID 0000.0001) %MON advcfl_wvel_max              =   4.8050241275036E-16
(PID.TID 0000.0001) %MON advcfl_W_hf_max              =   0.0000000000000E+00
(PID.TID 0000.0001) %MON pe_b_mean                    =   0.0000000000000E+00
(PID.TID 0000.0001) %MON ke_max                       =   7.4475958662786E+02
(PID.TID 0000.0001) %MON ke_mean                      =   4.9660795630338E+02
(PID.TID 0000.0001) %MON ke_vol                       =   5.0990436378172E+19
(PID.TID 0000.0001) %MON vort_r_min                   =  -1.2114474455529E-05
(PID.TID 0000.0001) %MON vort_r_max                   =   1.2114474455529E-05
(PID.TID 0000.0001) %MON vort_a_mean                  =   2.4513551737851E-21
(PID.TID 0000.0001) %MON vort_a_sd                    =   9.0967845104703E-05
(PID.TID 0000.0001) %MON vort_p_mean                  =   2.4513551737851E-21
(PID.TID 0000.0001) %MON vort_p_sd                    =   9.0967845104703E-05
(PID.TID 0000.0001) %MON surfExpan_theta_mean         =  -6.1333415821978E-19
(PID.TID 0000.0001) %MON surfExpan_salt_mean          =   2.7182398239807E-19
(PID.TID 0000.0001) // =======================================================
(PID.TID 0000.0001) // End MONITOR dynamic field statistics
(PID.TID 0000.0001) // =======================================================
(PID.TID 0000.0001) // =======================================================
(PID.TID 0000.0001) // Begin MONITOR dynamic field statistics
(PID.TID 0000.0001) // =======================================================
(PID.TID 0000.0001) %MON time_tsnumber                =                   138
(PID.TID 0000.0001) %MON time_secondsf                =   4.9680000000000E+05
(PID.TID 0000.0001) %MON dynstat_eta_max              =   0.0000000000000E+00
(PID.TID 0000.0001) %MON dynstat_eta_min              =   0.0000000000000E+00
(PID.TID 0000.0001) %MON dynstat_eta_mean             =   0.0000000000000E+00
(PID.TID 0000.0001) %MON dynstat_eta_sd               =   0.0000000000000E+00
(PID.TID 0000.0001) %MON dynstat_eta_del2             =   0.0000000000000E+00
(PID.TID 0000.0001) %MON dynstat_uvel_max             =   3.8588909729197E+01
(PID.TID 0000.0001) %MON dynstat_uvel_min             =  -2.6640751857532E+01
(PID.TID 0000.0001) %MON dynstat_uvel_mean            =   1.1767801879505E+01
(PID.TID 0000.0001) %MON dynstat_uvel_sd              =   1.8925337749668E+01
(PID.TID 0000.0001) %MON dynstat_uvel_del2            =   3.3980387131857E-02
(PID.TID 0000.0001) %MON dynstat_vvel_max             =   3.8588909729197E+01
(PID.TID 0000.0001) %MON dynstat_vvel_min             =  -2.6640751857532E+01
(PID.TID 0000.0001) %MON dynstat_vvel_mean            =   1.1767801879505E+01
(PID.TID 0000.0001) %MON dynstat_vvel_sd              =   1.8925337749668E+01
(PID.TID 0000.0001) %MON dynstat_vvel_del2            =   3.3980387131857E-02
(PID.TID 0000.0001) %MON dynstat_wvel_max             =   6.6736446215327E-15
(PID.TID 0000.0001) %MON dynstat_wvel_min             =  -6.6736446215327E-15
(PID.TID 0000.0001) %MON dynstat_wvel_mean            =   2.3939844639623E-19
(PID.TID 0000.0001) %MON dynstat_wvel_sd              =   1.5089012586666E-15
(PID.TID 0000.0001) %MON dynstat_wvel_del2            =   1.4563361156032E-15
(PID.TID 0000.0001) %MON dynstat_theta_max            =   1.8441465934264E+00
(PID.TID 0000.0001) %MON dynstat_theta_min            =   9.9986541558433E-01
(PID.TID 0000.0001) %MON dynstat_theta_mean           =   1.0066888037826E+00
(PID.TID 0000.0001) %MON dynstat_theta_sd             =   5.7570398702556E-02
(PID.TID 0000.0001) %MON dynstat_theta_del2           =   3.9064914654134E-04
(PID.TID 0000.0001) %MON dynstat_salt_max             =   1.8753990180133E+00
(PID.TID 0000.0001) %MON dynstat_salt_min             =   9.9938914617902E-01
(PID.TID 0000.0001) %MON dynstat_salt_mean            =   1.0066901484881E+00
(PID.TID 0000.0001) %MON dynstat_salt_sd              =   5.8465247746294E-02
(PID.TID 0000.0001) %MON dynstat_salt_del2            =   4.0482370559227E-04
(PID.TID 0000.0001) %MON advcfl_uvel_max              =   1.0240615062181E+00
(PID.TID 0000.0001) %MON advcfl_vvel_max              =   1.0240615062181E+00
(PID.TID 0000.0001) %MON advcfl_wvel_max              =   4.8050241275036E-16
(PID.TID 0000.0001) %MON advcfl_W_hf_max              =   0.0000000000000E+00
(PID.TID 0000.0001) %MON pe_b_mean                    =   0.0000000000000E+00
(PID.TID 0000.0001) %MON ke_max                       =   7.4475958662786E+02
(PID.TID 0000.0001) %MON ke_mean                      =   4.9660795630338E+02
(PID.TID 0000.0001) %MON ke_vol                       =   5.0990436378172E+19
(PID.TID 0000.0001) %MON vort_r_min                   =  -1.2114474455529E-05
(PID.TID 0000.0001) %MON vort_r_max                   =   1.2114474455529E-05
(PID.TID 0000.0001) %MON vort_a_mean                  =   2.4513551737851E-21
(PID.TID 0000.0001) %MON vort_a_sd                    =   9.0967845104703E-05
(PID.TID 0000.0001) %MON vort_p_mean                  =   2.4513551737851E-21
(PID.TID 0000.0001) %MON vort_p_sd                    =   9.0967845104703E-05
(PID.TID 0000.0001) %MON surfExpan_theta_mean         =  -1.2683176599996E-19
(PID.TID 0000.0001) %MON surfExpan_salt_mean          =   3.8304868337003E-19
(PID.TID 0000.0001) // =======================================================
(PID.TID 0000.0001) // End MONITOR dynamic field statistics
(PID.TID 0000.0001) // =======================================================
(PID.TID 0000.0001) // =======================================================
(PID.TID 0000.0001) // Begin MONITOR dynamic field statistics
(PID.TID 0000.0001) // =======================================================
(PID.TID 0000.0001) %MON time_tsnumber                =                   144
(PID.TID 0000.0001) %MON time_secondsf                =   5.1840000000000E+05
(PID.TID 0000.0001) %MON dynstat_eta_max              =   0.0000000000000E+00
(PID.TID 0000.0001) %MON dynstat_eta_min              =   0.0000000000000E+00
(PID.TID 0000.0001) %MON dynstat_eta_mean             =   0.0000000000000E+00
(PID.TID 0000.0001) %MON dynstat_eta_sd               =   0.0000000000000E+00
(PID.TID 0000.0001) %MON dynstat_eta_del2             =   0.0000000000000E+00
(PID.TID 0000.0001) %MON dynstat_uvel_max             =   3.8588909729197E+01
(PID.TID 0000.0001) %MON dynstat_uvel_min             =  -2.6640751857532E+01
(PID.TID 0000.0001) %MON dynstat_uvel_mean            =   1.1767801879505E+01
(PID.TID 0000.0001) %MON dynstat_uvel_sd              =   1.8925337749668E+01
(PID.TID 0000.0001) %MON dynstat_uvel_del2            =   3.3980387131857E-02
(PID.TID 0000.0001) %MON dynstat_vvel_max             =   3.8588909729197E+01
(PID.TID 0000.0001) %MON dynstat_vvel_min             =  -2.6640751857532E+01
(PID.TID 0000.0001) %MON dynstat_vvel_mean            =   1.1767801879505E+01
(PID.TID 0000.0001) %MON dynstat_vvel_sd              =   1.8925337749668E+01
(PID.TID 0000.0001) %MON dynstat_vvel_del2            =   3.3980387131857E-02
(PID.TID 0000.0001) %MON dynstat_wvel_max             =   6.6736446215327E-15
(PID.TID 0000.0001) %MON dynstat_wvel_min             =  -6.6736446215327E-15
(PID.TID 0000.0001) %MON dynstat_wvel_mean            =   2.3939844639623E-19
(PID.TID 0000.0001) %MON dynstat_wvel_sd              =   1.5089012586666E-15
(PID.TID 0000.0001) %MON dynstat_wvel_del2            =   1.4563361156032E-15
(PID.TID 0000.0001) %MON dynstat_theta_max            =   1.8393198763189E+00
(PID.TID 0000.0001) %MON dynstat_theta_min            =   9.9986766963202E-01
(PID.TID 0000.0001) %MON dynstat_theta_mean           =   1.0066888037826E+00
(PID.TID 0000.0001) %MON dynstat_theta_sd             =   5.7425349891103E-02
(PID.TID 0000.0001) %MON dynstat_theta_del2           =   3.9113308654929E-04
(PID.TID 0000.0001) %MON dynstat_salt_max             =   1.8689976267340E+00
(PID.TID 0000.0001) %MON dynstat_salt_min             =   9.9955108913010E-01
(PID.TID 0000.0001) %MON dynstat_salt_mean            =   1.0066901484881E+00
(PID.TID 0000.0001) %MON dynstat_salt_sd              =   5.8326825668594E-02
(PID.TID 0000.0001) %MON dynstat_salt_del2            =   4.0390140707820E-04
(PID.TID 0000.0001) %MON advcfl_uvel_max              =   1.0240615062181E+00
(PID.TID 0000.0001) %MON advcfl_vvel_max              =   1.0240615062181E+00
(PID.TID 0000.0001) %MON advcfl_wvel_max              =   4.8050241275036E-16
(PID.TID 0000.0001) %MON advcfl_W_hf_max              =   0.0000000000000E+00
(PID.TID 0000.0001) %MON pe_b_mean                    =   0.0000000000000E+00
(PID.TID 0000.0001) %MON ke_max                       =   7.4475958662786E+02
(PID.TID 0000.0001) %MON ke_mean                      =   4.9660795630338E+02
(PID.TID 0000.0001) %MON ke_vol                       =   5.0990436378172E+19
(PID.TID 0000.0001) %MON vort_r_min                   =  -1.2114474455529E-05
(PID.TID 0000.0001) %MON vort_r_max                   =   1.2114474455529E-05
(PID.TID 0000.0001) %MON vort_a_mean                  =   2.4513551737851E-21
(PID.TID 0000.0001) %MON vort_a_sd                    =   9.0967845104703E-05
(PID.TID 0000.0001) %MON vort_p_mean                  =   2.4513551737851E-21
(PID.TID 0000.0001) %MON vort_p_sd                    =   9.0967845104703E-05
(PID.TID 0000.0001) %MON surfExpan_theta_mean         =   2.4583450116900E-19
(PID.TID 0000.0001) %MON surfExpan_salt_mean          =   2.8757433672208E-19
(PID.TID 0000.0001) // =======================================================
(PID.TID 0000.0001) // End MONITOR dynamic field statistics
(PID.TID 0000.0001) // =======================================================
(PID.TID 0000.0001) // =======================================================
(PID.TID 0000.0001) // Begin MONITOR dynamic field statistics
(PID.TID 0000.0001) // =======================================================
(PID.TID 0000.0001) %MON time_tsnumber                =                   150
(PID.TID 0000.0001) %MON time_secondsf                =   5.4000000000000E+05
(PID.TID 0000.0001) %MON dynstat_eta_max              =   0.0000000000000E+00
(PID.TID 0000.0001) %MON dynstat_eta_min              =   0.0000000000000E+00
(PID.TID 0000.0001) %MON dynstat_eta_mean             =   0.0000000000000E+00
(PID.TID 0000.0001) %MON dynstat_eta_sd               =   0.0000000000000E+00
(PID.TID 0000.0001) %MON dynstat_eta_del2             =   0.0000000000000E+00
(PID.TID 0000.0001) %MON dynstat_uvel_max             =   3.8588909729197E+01
(PID.TID 0000.0001) %MON dynstat_uvel_min             =  -2.6640751857532E+01
(PID.TID 0000.0001) %MON dynstat_uvel_mean            =   1.1767801879505E+01
(PID.TID 0000.0001) %MON dynstat_uvel_sd              =   1.8925337749668E+01
(PID.TID 0000.0001) %MON dynstat_uvel_del2            =   3.3980387131857E-02
(PID.TID 0000.0001) %MON dynstat_vvel_max             =   3.8588909729197E+01
(PID.TID 0000.0001) %MON dynstat_vvel_min             =  -2.6640751857532E+01
(PID.TID 0000.0001) %MON dynstat_vvel_mean            =   1.1767801879505E+01
(PID.TID 0000.0001) %MON dynstat_vvel_sd              =   1.8925337749668E+01
(PID.TID 0000.0001) %MON dynstat_vvel_del2            =   3.3980387131857E-02
(PID.TID 0000.0001) %MON dynstat_wvel_max             =   6.6736446215327E-15
(PID.TID 0000.0001) %MON dynstat_wvel_min             =  -6.6736446215327E-15
(PID.TID 0000.0001) %MON dynstat_wvel_mean            =   2.3939844639623E-19
(PID.TID 0000.0001) %MON dynstat_wvel_sd              =   1.5089012586666E-15
(PID.TID 0000.0001) %MON dynstat_wvel_del2            =   1.4563361156032E-15
(PID.TID 0000.0001) %MON dynstat_theta_max            =   1.8387031967736E+00
(PID.TID 0000.0001) %MON dynstat_theta_min            =   9.9987630645692E-01
(PID.TID 0000.0001) %MON dynstat_theta_mean           =   1.0066888037826E+00
(PID.TID 0000.0001) %MON dynstat_theta_sd             =   5.7276518900523E-02
(PID.TID 0000.0001) %MON dynstat_theta_del2           =   3.8784412355752E-04
(PID.TID 0000.0001) %MON dynstat_salt_max             =   1.8673910262012E+00
(PID.TID 0000.0001) %MON dynstat_salt_min             =   9.9949465408413E-01
(PID.TID 0000.0001) %MON dynstat_salt_mean            =   1.0066901484881E+00
(PID.TID 0000.0001) %MON dynstat_salt_sd              =   5.8181826346451E-02
(PID.TID 0000.0001) %MON dynstat_salt_del2            =   4.0370235880852E-04
(PID.TID 0000.0001) %MON advcfl_uvel_max              =   1.0240615062181E+00
(PID.TID 0000.0001) %MON advcfl_vvel_max              =   1.0240615062181E+00
(PID.TID 0000.0001) %MON advcfl_wvel_max              =   4.8050241275036E-16
(PID.TID 0000.0001) %MON advcfl_W_hf_max              =   0.0000000000000E+00
(PID.TID 0000.0001) %MON pe_b_mean                    =   0.0000000000000E+00
(PID.TID 0000.0001) %MON ke_max                       =   7.4475958662786E+02
(PID.TID 0000.0001) %MON ke_mean                      =   4.9660795630338E+02
(PID.TID 0000.0001) %MON ke_vol                       =   5.0990436378172E+19
(PID.TID 0000.0001) %MON vort_r_min                   =  -1.2114474455529E-05
(PID.TID 0000.0001) %MON vort_r_max                   =   1.2114474455529E-05
(PID.TID 0000.0001) %MON vort_a_mean                  =   2.4513551737851E-21
(PID.TID 0000.0001) %MON vort_a_sd                    =   9.0967845104703E-05
(PID.TID 0000.0001) %MON vort_p_mean                  =   2.4513551737851E-21
(PID.TID 0000.0001) %MON vort_p_sd                    =   9.0967845104703E-05
(PID.TID 0000.0001) %MON surfExpan_theta_mean         =   6.0070394224777E-19
(PID.TID 0000.0001) %MON surfExpan_salt_mean          =   1.8688763689118E-19
(PID.TID 0000.0001) // =======================================================
(PID.TID 0000.0001) // End MONITOR dynamic field statistics
(PID.TID 0000.0001) // =======================================================
(PID.TID 0000.0001) // =======================================================
(PID.TID 0000.0001) // Begin MONITOR dynamic field statistics
(PID.TID 0000.0001) // =======================================================
(PID.TID 0000.0001) %MON time_tsnumber                =                   156
(PID.TID 0000.0001) %MON time_secondsf                =   5.6160000000000E+05
(PID.TID 0000.0001) %MON dynstat_eta_max              =   0.0000000000000E+00
(PID.TID 0000.0001) %MON dynstat_eta_min              =   0.0000000000000E+00
(PID.TID 0000.0001) %MON dynstat_eta_mean             =   0.0000000000000E+00
(PID.TID 0000.0001) %MON dynstat_eta_sd               =   0.0000000000000E+00
(PID.TID 0000.0001) %MON dynstat_eta_del2             =   0.0000000000000E+00
(PID.TID 0000.0001) %MON dynstat_uvel_max             =   3.8588909729197E+01
(PID.TID 0000.0001) %MON dynstat_uvel_min             =  -2.6640751857532E+01
(PID.TID 0000.0001) %MON dynstat_uvel_mean            =   1.1767801879505E+01
(PID.TID 0000.0001) %MON dynstat_uvel_sd              =   1.8925337749668E+01
(PID.TID 0000.0001) %MON dynstat_uvel_del2            =   3.3980387131857E-02
(PID.TID 0000.0001) %MON dynstat_vvel_max             =   3.8588909729197E+01
(PID.TID 0000.0001) %MON dynstat_vvel_min             =  -2.6640751857532E+01
(PID.TID 0000.0001) %MON dynstat_vvel_mean            =   1.1767801879505E+01
(PID.TID 0000.0001) %MON dynstat_vvel_sd              =   1.8925337749668E+01
(PID.TID 0000.0001) %MON dynstat_vvel_del2            =   3.3980387131857E-02
(PID.TID 0000.0001) %MON dynstat_wvel_max             =   6.6736446215327E-15
(PID.TID 0000.0001) %MON dynstat_wvel_min             =  -6.6736446215327E-15
(PID.TID 0000.0001) %MON dynstat_wvel_mean            =   2.3939844639623E-19
(PID.TID 0000.0001) %MON dynstat_wvel_sd              =   1.5089012586666E-15
(PID.TID 0000.0001) %MON dynstat_wvel_del2            =   1.4563361156032E-15
(PID.TID 0000.0001) %MON dynstat_theta_max            =   1.8344933699079E+00
(PID.TID 0000.0001) %MON dynstat_theta_min            =   9.9987912257631E-01
(PID.TID 0000.0001) %MON dynstat_theta_mean           =   1.0066888037826E+00
(PID.TID 0000.0001) %MON dynstat_theta_sd             =   5.7133139501522E-02
(PID.TID 0000.0001) %MON dynstat_theta_del2           =   3.8588796450515E-04
(PID.TID 0000.0001) %MON dynstat_salt_max             =   1.8634039141865E+00
(PID.TID 0000.0001) %MON dynstat_salt_min             =   9.9959359996756E-01
(PID.TID 0000.0001) %MON dynstat_salt_mean            =   1.0066901484881E+00
(PID.TID 0000.0001) %MON dynstat_salt_sd              =   5.8036358205938E-02
(PID.TID 0000.0001) %MON dynstat_salt_del2            =   4.0810541082326E-04
(PID.TID 0000.0001) %MON advcfl_uvel_max              =   1.0240615062181E+00
(PID.TID 0000.0001) %MON advcfl_vvel_max              =   1.0240615062181E+00
(PID.TID 0000.0001) %MON advcfl_wvel_max              =   4.8050241275036E-16
(PID.TID 0000.0001) %MON advcfl_W_hf_max              =   0.0000000000000E+00
(PID.TID 0000.0001) %MON pe_b_mean                    =   0.0000000000000E+00
(PID.TID 0000.0001) %MON ke_max                       =   7.4475958662786E+02
(PID.TID 0000.0001) %MON ke_mean                      =   4.9660795630338E+02
(PID.TID 0000.0001) %MON ke_vol                       =   5.0990436378172E+19
(PID.TID 0000.0001) %MON vort_r_min                   =  -1.2114474455529E-05
(PID.TID 0000.0001) %MON vort_r_max                   =   1.2114474455529E-05
(PID.TID 0000.0001) %MON vort_a_mean                  =   2.4513551737851E-21
(PID.TID 0000.0001) %MON vort_a_sd                    =   9.0967845104703E-05
(PID.TID 0000.0001) %MON vort_p_mean                  =   2.4513551737851E-21
(PID.TID 0000.0001) %MON vort_p_sd                    =   9.0967845104703E-05
(PID.TID 0000.0001) %MON surfExpan_theta_mean         =   1.0865685934574E-18
(PID.TID 0000.0001) %MON surfExpan_salt_mean          =   2.2945338911110E-19
(PID.TID 0000.0001) // =======================================================
(PID.TID 0000.0001) // End MONITOR dynamic field statistics
(PID.TID 0000.0001) // =======================================================
(PID.TID 0000.0001) // =======================================================
(PID.TID 0000.0001) // Begin MONITOR dynamic field statistics
(PID.TID 0000.0001) // =======================================================
(PID.TID 0000.0001) %MON time_tsnumber                =                   162
(PID.TID 0000.0001) %MON time_secondsf                =   5.8320000000000E+05
(PID.TID 0000.0001) %MON dynstat_eta_max              =   0.0000000000000E+00
(PID.TID 0000.0001) %MON dynstat_eta_min              =   0.0000000000000E+00
(PID.TID 0000.0001) %MON dynstat_eta_mean             =   0.0000000000000E+00
(PID.TID 0000.0001) %MON dynstat_eta_sd               =   0.0000000000000E+00
(PID.TID 0000.0001) %MON dynstat_eta_del2             =   0.0000000000000E+00
(PID.TID 0000.0001) %MON dynstat_uvel_max             =   3.8588909729197E+01
(PID.TID 0000.0001) %MON dynstat_uvel_min             =  -2.6640751857532E+01
(PID.TID 0000.0001) %MON dynstat_uvel_mean            =   1.1767801879505E+01
(PID.TID 0000.0001) %MON dynstat_uvel_sd              =   1.8925337749668E+01
(PID.TID 0000.0001) %MON dynstat_uvel_del2            =   3.3980387131857E-02
(PID.TID 0000.0001) %MON dynstat_vvel_max             =   3.8588909729197E+01
(PID.TID 0000.0001) %MON dynstat_vvel_min             =  -2.6640751857532E+01
(PID.TID 0000.0001) %MON dynstat_vvel_mean            =   1.1767801879505E+01
(PID.TID 0000.0001) %MON dynstat_vvel_sd              =   1.8925337749668E+01
(PID.TID 0000.0001) %MON dynstat_vvel_del2            =   3.3980387131857E-02
(PID.TID 0000.0001) %MON dynstat_wvel_max             =   6.6736446215327E-15
(PID.TID 0000.0001) %MON dynstat_wvel_min             =  -6.6736446215327E-15
(PID.TID 0000.0001) %MON dynstat_wvel_mean            =   2.3939844639623E-19
(PID.TID 0000.0001) %MON dynstat_wvel_sd              =   1.5089012586666E-15
(PID.TID 0000.0001) %MON dynstat_wvel_del2            =   1.4563361156032E-15
(PID.TID 0000.0001) %MON dynstat_theta_max            =   1.8299740365712E+00
(PID.TID 0000.0001) %MON dynstat_theta_min            =   9.9989118395798E-01
(PID.TID 0000.0001) %MON dynstat_theta_mean           =   1.0066888037826E+00
(PID.TID 0000.0001) %MON dynstat_theta_sd             =   5.6995138620015E-02
(PID.TID 0000.0001) %MON dynstat_theta_del2           =   3.8305968220786E-04
(PID.TID 0000.0001) %MON dynstat_salt_max             =   1.8560179480214E+00
(PID.TID 0000.0001) %MON dynstat_salt_min             =   9.9963038986892E-01
(PID.TID 0000.0001) %MON dynstat_salt_mean            =   1.0066901484881E+00
(PID.TID 0000.0001) %MON dynstat_salt_sd              =   5.7897798466537E-02
(PID.TID 0000.0001) %MON dynstat_salt_del2            =   4.1908080693136E-04
(PID.TID 0000.0001) %MON advcfl_uvel_max              =   1.0240615062181E+00
(PID.TID 0000.0001) %MON advcfl_vvel_max              =   1.0240615062181E+00
(PID.TID 0000.0001) %MON advcfl_wvel_max              =   4.8050241275036E-16
(PID.TID 0000.0001) %MON advcfl_W_hf_max              =   0.0000000000000E+00
(PID.TID 0000.0001) %MON pe_b_mean                    =   0.0000000000000E+00
(PID.TID 0000.0001) %MON ke_max                       =   7.4475958662786E+02
(PID.TID 0000.0001) %MON ke_mean                      =   4.9660795630338E+02
(PID.TID 0000.0001) %MON ke_vol                       =   5.0990436378172E+19
(PID.TID 0000.0001) %MON vort_r_min                   =  -1.2114474455529E-05
(PID.TID 0000.0001) %MON vort_r_max                   =   1.2114474455529E-05
(PID.TID 0000.0001) %MON vort_a_mean                  =   2.4513551737851E-21
(PID.TID 0000.0001) %MON vort_a_sd                    =   9.0967845104703E-05
(PID.TID 0000.0001) %MON vort_p_mean                  =   2.4513551737851E-21
(PID.TID 0000.0001) %MON vort_p_sd                    =   9.0967845104703E-05
(PID.TID 0000.0001) %MON surfExpan_theta_mean         =   1.1763265699759E-18
(PID.TID 0000.0001) %MON surfExpan_salt_mean          =   3.5919582695099E-19
(PID.TID 0000.0001) // =======================================================
(PID.TID 0000.0001) // End MONITOR dynamic field statistics
(PID.TID 0000.0001) // =======================================================
(PID.TID 0000.0001) // =======================================================
(PID.TID 0000.0001) // Begin MONITOR dynamic field statistics
(PID.TID 0000.0001) // =======================================================
(PID.TID 0000.0001) %MON time_tsnumber                =                   168
(PID.TID 0000.0001) %MON time_secondsf                =   6.0480000000000E+05
(PID.TID 0000.0001) %MON dynstat_eta_max              =   0.0000000000000E+00
(PID.TID 0000.0001) %MON dynstat_eta_min              =   0.0000000000000E+00
(PID.TID 0000.0001) %MON dynstat_eta_mean             =   0.0000000000000E+00
(PID.TID 0000.0001) %MON dynstat_eta_sd               =   0.0000000000000E+00
(PID.TID 0000.0001) %MON dynstat_eta_del2             =   0.0000000000000E+00
(PID.TID 0000.0001) %MON dynstat_uvel_max             =   3.8588909729197E+01
(PID.TID 0000.0001) %MON dynstat_uvel_min             =  -2.6640751857532E+01
(PID.TID 0000.0001) %MON dynstat_uvel_mean            =   1.1767801879505E+01
(PID.TID 0000.0001) %MON dynstat_uvel_sd              =   1.8925337749668E+01
(PID.TID 0000.0001) %MON dynstat_uvel_del2            =   3.3980387131857E-02
(PID.TID 0000.0001) %MON dynstat_vvel_max             =   3.8588909729197E+01
(PID.TID 0000.0001) %MON dynstat_vvel_min             =  -2.6640751857532E+01
(PID.TID 0000.0001) %MON dynstat_vvel_mean            =   1.1767801879505E+01
(PID.TID 0000.0001) %MON dynstat_vvel_sd              =   1.8925337749668E+01
(PID.TID 0000.0001) %MON dynstat_vvel_del2            =   3.3980387131857E-02
(PID.TID 0000.0001) %MON dynstat_wvel_max             =   6.6736446215327E-15
(PID.TID 0000.0001) %MON dynstat_wvel_min             =  -6.6736446215327E-15
(PID.TID 0000.0001) %MON dynstat_wvel_mean            =   2.3939844639623E-19
(PID.TID 0000.0001) %MON dynstat_wvel_sd              =   1.5089012586666E-15
(PID.TID 0000.0001) %MON dynstat_wvel_del2            =   1.4563361156032E-15
(PID.TID 0000.0001) %MON dynstat_theta_max            =   1.8265150059875E+00
(PID.TID 0000.0001) %MON dynstat_theta_min            =   9.9990498432215E-01
(PID.TID 0000.0001) %MON dynstat_theta_mean           =   1.0066888037826E+00
(PID.TID 0000.0001) %MON dynstat_theta_sd             =   5.6867050289685E-02
(PID.TID 0000.0001) %MON dynstat_theta_del2           =   3.8489643965392E-04
(PID.TID 0000.0001) %MON dynstat_salt_max             =   1.8536166994530E+00
(PID.TID 0000.0001) %MON dynstat_salt_min             =   9.9968364367287E-01
(PID.TID 0000.0001) %MON dynstat_salt_mean            =   1.0066901484881E+00
(PID.TID 0000.0001) %MON dynstat_salt_sd              =   5.7773698691233E-02
(PID.TID 0000.0001) %MON dynstat_salt_del2            =   4.3233179890813E-04
(PID.TID 0000.0001) %MON advcfl_uvel_max              =   1.0240615062181E+00
(PID.TID 0000.0001) %MON advcfl_vvel_max              =   1.0240615062181E+00
(PID.TID 0000.0001) %MON advcfl_wvel_max              =   4.8050241275036E-16
(PID.TID 0000.0001) %MON advcfl_W_hf_max              =   0.0000000000000E+00
(PID.TID 0000.0001) %MON pe_b_mean                    =   0.0000000000000E+00
(PID.TID 0000.0001) %MON ke_max                       =   7.4475958662786E+02
(PID.TID 0000.0001) %MON ke_mean                      =   4.9660795630338E+02
(PID.TID 0000.0001) %MON ke_vol                       =   5.0990436378172E+19
(PID.TID 0000.0001) %MON vort_r_min                   =  -1.2114474455529E-05
(PID.TID 0000.0001) %MON vort_r_max                   =   1.2114474455529E-05
(PID.TID 0000.0001) %MON vort_a_mean                  =   2.4513551737851E-21
(PID.TID 0000.0001) %MON vort_a_sd                    =   9.0967845104703E-05
(PID.TID 0000.0001) %MON vort_p_mean                  =   2.4513551737851E-21
(PID.TID 0000.0001) %MON vort_p_sd                    =   9.0967845104703E-05
(PID.TID 0000.0001) %MON surfExpan_theta_mean         =   2.2763397287920E-19
(PID.TID 0000.0001) %MON surfExpan_salt_mean          =   2.8119713341410E-19
(PID.TID 0000.0001) // =======================================================
(PID.TID 0000.0001) // End MONITOR dynamic field statistics
(PID.TID 0000.0001) // =======================================================
(PID.TID 0000.0001) // =======================================================
(PID.TID 0000.0001) // Begin MONITOR dynamic field statistics
(PID.TID 0000.0001) // =======================================================
(PID.TID 0000.0001) %MON time_tsnumber                =                   174
(PID.TID 0000.0001) %MON time_secondsf                =   6.2640000000000E+05
(PID.TID 0000.0001) %MON dynstat_eta_max              =   0.0000000000000E+00
(PID.TID 0000.0001) %MON dynstat_eta_min              =   0.0000000000000E+00
(PID.TID 0000.0001) %MON dynstat_eta_mean             =   0.0000000000000E+00
(PID.TID 0000.0001) %MON dynstat_eta_sd               =   0.0000000000000E+00
(PID.TID 0000.0001) %MON dynstat_eta_del2             =   0.0000000000000E+00
(PID.TID 0000.0001) %MON dynstat_uvel_max             =   3.8588909729197E+01
(PID.TID 0000.0001) %MON dynstat_uvel_min             =  -2.6640751857532E+01
(PID.TID 0000.0001) %MON dynstat_uvel_mean            =   1.1767801879505E+01
(PID.TID 0000.0001) %MON dynstat_uvel_sd              =   1.8925337749668E+01
(PID.TID 0000.0001) %MON dynstat_uvel_del2            =   3.3980387131857E-02
(PID.TID 0000.0001) %MON dynstat_vvel_max             =   3.8588909729197E+01
(PID.TID 0000.0001) %MON dynstat_vvel_min             =  -2.6640751857532E+01
(PID.TID 0000.0001) %MON dynstat_vvel_mean            =   1.1767801879505E+01
(PID.TID 0000.0001) %MON dynstat_vvel_sd              =   1.8925337749668E+01
(PID.TID 0000.0001) %MON dynstat_vvel_del2            =   3.3980387131857E-02
(PID.TID 0000.0001) %MON dynstat_wvel_max             =   6.6736446215327E-15
(PID.TID 0000.0001) %MON dynstat_wvel_min             =  -6.6736446215327E-15
(PID.TID 0000.0001) %MON dynstat_wvel_mean            =   2.3939844639623E-19
(PID.TID 0000.0001) %MON dynstat_wvel_sd              =   1.5089012586666E-15
(PID.TID 0000.0001) %MON dynstat_wvel_del2            =   1.4563361156032E-15
(PID.TID 0000.0001) %MON dynstat_theta_max            =   1.8249596593265E+00
(PID.TID 0000.0001) %MON dynstat_theta_min            =   9.9991396305370E-01
(PID.TID 0000.0001) %MON dynstat_theta_mean           =   1.0066888037826E+00
(PID.TID 0000.0001) %MON dynstat_theta_sd             =   5.6749453316382E-02
(PID.TID 0000.0001) %MON dynstat_theta_del2           =   3.8191052164128E-04
(PID.TID 0000.0001) %MON dynstat_salt_max             =   1.8503050345606E+00
(PID.TID 0000.0001) %MON dynstat_salt_min             =   9.9972425423023E-01
(PID.TID 0000.0001) %MON dynstat_salt_mean            =   1.0066901484881E+00
(PID.TID 0000.0001) %MON dynstat_salt_sd              =   5.7693452726003E-02
(PID.TID 0000.0001) %MON dynstat_salt_del2            =   4.2585720175499E-04
(PID.TID 0000.0001) %MON advcfl_uvel_max              =   1.0240615062181E+00
(PID.TID 0000.0001) %MON advcfl_vvel_max              =   1.0240615062181E+00
(PID.TID 0000.0001) %MON advcfl_wvel_max              =   4.8050241275036E-16
(PID.TID 0000.0001) %MON advcfl_W_hf_max              =   0.0000000000000E+00
(PID.TID 0000.0001) %MON pe_b_mean                    =   0.0000000000000E+00
(PID.TID 0000.0001) %MON ke_max                       =   7.4475958662786E+02
(PID.TID 0000.0001) %MON ke_mean                      =   4.9660795630338E+02
(PID.TID 0000.0001) %MON ke_vol                       =   5.0990436378172E+19
(PID.TID 0000.0001) %MON vort_r_min                   =  -1.2114474455529E-05
(PID.TID 0000.0001) %MON vort_r_max                   =   1.2114474455529E-05
(PID.TID 0000.0001) %MON vort_a_mean                  =   2.4513551737851E-21
(PID.TID 0000.0001) %MON vort_a_sd                    =   9.0967845104703E-05
(PID.TID 0000.0001) %MON vort_p_mean                  =   2.4513551737851E-21
(PID.TID 0000.0001) %MON vort_p_sd                    =   9.0967845104703E-05
(PID.TID 0000.0001) %MON surfExpan_theta_mean         =  -2.9717045985584E-19
(PID.TID 0000.0001) %MON surfExpan_salt_mean          =   1.8756112566875E-19
(PID.TID 0000.0001) // =======================================================
(PID.TID 0000.0001) // End MONITOR dynamic field statistics
(PID.TID 0000.0001) // =======================================================
(PID.TID 0000.0001) // =======================================================
(PID.TID 0000.0001) // Begin MONITOR dynamic field statistics
(PID.TID 0000.0001) // =======================================================
(PID.TID 0000.0001) %MON time_tsnumber                =                   180
(PID.TID 0000.0001) %MON time_secondsf                =   6.4800000000000E+05
(PID.TID 0000.0001) %MON dynstat_eta_max              =   0.0000000000000E+00
(PID.TID 0000.0001) %MON dynstat_eta_min              =   0.0000000000000E+00
(PID.TID 0000.0001) %MON dynstat_eta_mean             =   0.0000000000000E+00
(PID.TID 0000.0001) %MON dynstat_eta_sd               =   0.0000000000000E+00
(PID.TID 0000.0001) %MON dynstat_eta_del2             =   0.0000000000000E+00
(PID.TID 0000.0001) %MON dynstat_uvel_max             =   3.8588909729197E+01
(PID.TID 0000.0001) %MON dynstat_uvel_min             =  -2.6640751857532E+01
(PID.TID 0000.0001) %MON dynstat_uvel_mean            =   1.1767801879505E+01
(PID.TID 0000.0001) %MON dynstat_uvel_sd              =   1.8925337749668E+01
(PID.TID 0000.0001) %MON dynstat_uvel_del2            =   3.3980387131857E-02
(PID.TID 0000.0001) %MON dynstat_vvel_max             =   3.8588909729197E+01
(PID.TID 0000.0001) %MON dynstat_vvel_min             =  -2.6640751857532E+01
(PID.TID 0000.0001) %MON dynstat_vvel_mean            =   1.1767801879505E+01
(PID.TID 0000.0001) %MON dynstat_vvel_sd              =   1.8925337749668E+01
(PID.TID 0000.0001) %MON dynstat_vvel_del2            =   3.3980387131857E-02
(PID.TID 0000.0001) %MON dynstat_wvel_max             =   6.6736446215327E-15
(PID.TID 0000.0001) %MON dynstat_wvel_min             =  -6.6736446215327E-15
(PID.TID 0000.0001) %MON dynstat_wvel_mean            =   2.3939844639623E-19
(PID.TID 0000.0001) %MON dynstat_wvel_sd              =   1.5089012586666E-15
(PID.TID 0000.0001) %MON dynstat_wvel_del2            =   1.4563361156032E-15
(PID.TID 0000.0001) %MON dynstat_theta_max            =   1.8197479344242E+00
(PID.TID 0000.0001) %MON dynstat_theta_min            =   9.9992137544289E-01
(PID.TID 0000.0001) %MON dynstat_theta_mean           =   1.0066888037826E+00
(PID.TID 0000.0001) %MON dynstat_theta_sd             =   5.6640822723274E-02
(PID.TID 0000.0001) %MON dynstat_theta_del2           =   3.7928363757346E-04
(PID.TID 0000.0001) %MON dynstat_salt_max             =   1.8486761721774E+00
(PID.TID 0000.0001) %MON dynstat_salt_min             =   9.9974435504472E-01
(PID.TID 0000.0001) %MON dynstat_salt_mean            =   1.0066901484881E+00
(PID.TID 0000.0001) %MON dynstat_salt_sd              =   5.7623709870110E-02
(PID.TID 0000.0001) %MON dynstat_salt_del2            =   4.0673642155058E-04
(PID.TID 0000.0001) %MON advcfl_uvel_max              =   1.0240615062181E+00
(PID.TID 0000.0001) %MON advcfl_vvel_max              =   1.0240615062181E+00
(PID.TID 0000.0001) %MON advcfl_wvel_max              =   4.8050241275036E-16
(PID.TID 0000.0001) %MON advcfl_W_hf_max              =   0.0000000000000E+00
(PID.TID 0000.0001) %MON pe_b_mean                    =   0.0000000000000E+00
(PID.TID 0000.0001) %MON ke_max                       =   7.4475958662786E+02
(PID.TID 0000.0001) %MON ke_mean                      =   4.9660795630338E+02
(PID.TID 0000.0001) %MON ke_vol                       =   5.0990436378172E+19
(PID.TID 0000.0001) %MON vort_r_min                   =  -1.2114474455529E-05
(PID.TID 0000.0001) %MON vort_r_max                   =   1.2114474455529E-05
(PID.TID 0000.0001) %MON vort_a_mean                  =   2.4513551737851E-21
(PID.TID 0000.0001) %MON vort_a_sd                    =   9.0967845104703E-05
(PID.TID 0000.0001) %MON vort_p_mean                  =   2.4513551737851E-21
(PID.TID 0000.0001) %MON vort_p_sd                    =   9.0967845104703E-05
(PID.TID 0000.0001) %MON surfExpan_theta_mean         =   1.4840839759501E-19
(PID.TID 0000.0001) %MON surfExpan_salt_mean          =   1.6054767320142E-19
(PID.TID 0000.0001) // =======================================================
(PID.TID 0000.0001) // End MONITOR dynamic field statistics
(PID.TID 0000.0001) // =======================================================
(PID.TID 0000.0001) // =======================================================
(PID.TID 0000.0001) // Begin MONITOR dynamic field statistics
(PID.TID 0000.0001) // =======================================================
(PID.TID 0000.0001) %MON time_tsnumber                =                   186
(PID.TID 0000.0001) %MON time_secondsf                =   6.6960000000000E+05
(PID.TID 0000.0001) %MON dynstat_eta_max              =   0.0000000000000E+00
(PID.TID 0000.0001) %MON dynstat_eta_min              =   0.0000000000000E+00
(PID.TID 0000.0001) %MON dynstat_eta_mean             =   0.0000000000000E+00
(PID.TID 0000.0001) %MON dynstat_eta_sd               =   0.0000000000000E+00
(PID.TID 0000.0001) %MON dynstat_eta_del2             =   0.0000000000000E+00
(PID.TID 0000.0001) %MON dynstat_uvel_max             =   3.8588909729197E+01
(PID.TID 0000.0001) %MON dynstat_uvel_min             =  -2.6640751857532E+01
(PID.TID 0000.0001) %MON dynstat_uvel_mean            =   1.1767801879505E+01
(PID.TID 0000.0001) %MON dynstat_uvel_sd              =   1.8925337749668E+01
(PID.TID 0000.0001) %MON dynstat_uvel_del2            =   3.3980387131857E-02
(PID.TID 0000.0001) %MON dynstat_vvel_max             =   3.8588909729197E+01
(PID.TID 0000.0001) %MON dynstat_vvel_min             =  -2.6640751857532E+01
(PID.TID 0000.0001) %MON dynstat_vvel_mean            =   1.1767801879505E+01
(PID.TID 0000.0001) %MON dynstat_vvel_sd              =   1.8925337749668E+01
(PID.TID 0000.0001) %MON dynstat_vvel_del2            =   3.3980387131857E-02
(PID.TID 0000.0001) %MON dynstat_wvel_max             =   6.6736446215327E-15
(PID.TID 0000.0001) %MON dynstat_wvel_min             =  -6.6736446215327E-15
(PID.TID 0000.0001) %MON dynstat_wvel_mean            =   2.3939844639623E-19
(PID.TID 0000.0001) %MON dynstat_wvel_sd              =   1.5089012586666E-15
(PID.TID 0000.0001) %MON dynstat_wvel_del2            =   1.4563361156032E-15
(PID.TID 0000.0001) %MON dynstat_theta_max            =   1.8194893596692E+00
(PID.TID 0000.0001) %MON dynstat_theta_min            =   9.9992587191706E-01
(PID.TID 0000.0001) %MON dynstat_theta_mean           =   1.0066888037826E+00
(PID.TID 0000.0001) %MON dynstat_theta_sd             =   5.6533130631220E-02
(PID.TID 0000.0001) %MON dynstat_theta_del2           =   3.8018617275886E-04
(PID.TID 0000.0001) %MON dynstat_salt_max             =   1.8484437050686E+00
(PID.TID 0000.0001) %MON dynstat_salt_min             =   9.9976363790857E-01
(PID.TID 0000.0001) %MON dynstat_salt_mean            =   1.0066901484881E+00
(PID.TID 0000.0001) %MON dynstat_salt_sd              =   5.7534935750616E-02
(PID.TID 0000.0001) %MON dynstat_salt_del2            =   4.2419022553932E-04
(PID.TID 0000.0001) %MON advcfl_uvel_max              =   1.0240615062181E+00
(PID.TID 0000.0001) %MON advcfl_vvel_max              =   1.0240615062181E+00
(PID.TID 0000.0001) %MON advcfl_wvel_max              =   4.8050241275036E-16
(PID.TID 0000.0001) %MON advcfl_W_hf_max              =   0.0000000000000E+00
(PID.TID 0000.0001) %MON pe_b_mean                    =   0.0000000000000E+00
(PID.TID 0000.0001) %MON ke_max                       =   7.4475958662786E+02
(PID.TID 0000.0001) %MON ke_mean                      =   4.9660795630338E+02
(PID.TID 0000.0001) %MON ke_vol                       =   5.0990436378172E+19
(PID.TID 0000.0001) %MON vort_r_min                   =  -1.2114474455529E-05
(PID.TID 0000.0001) %MON vort_r_max                   =   1.2114474455529E-05
(PID.TID 0000.0001) %MON vort_a_mean                  =   2.4513551737851E-21
(PID.TID 0000.0001) %MON vort_a_sd                    =   9.0967845104703E-05
(PID.TID 0000.0001) %MON vort_p_mean                  =   2.4513551737851E-21
(PID.TID 0000.0001) %MON vort_p_sd                    =   9.0967845104703E-05
(PID.TID 0000.0001) %MON surfExpan_theta_mean         =   5.5636910487174E-19
(PID.TID 0000.0001) %MON surfExpan_salt_mean          =   8.6208282065079E-20
(PID.TID 0000.0001) // =======================================================
(PID.TID 0000.0001) // End MONITOR dynamic field statistics
(PID.TID 0000.0001) // =======================================================
(PID.TID 0000.0001) // =======================================================
(PID.TID 0000.0001) // Begin MONITOR dynamic field statistics
(PID.TID 0000.0001) // =======================================================
(PID.TID 0000.0001) %MON time_tsnumber                =                   192
(PID.TID 0000.0001) %MON time_secondsf                =   6.9120000000000E+05
(PID.TID 0000.0001) %MON dynstat_eta_max              =   0.0000000000000E+00
(PID.TID 0000.0001) %MON dynstat_eta_min              =   0.0000000000000E+00
(PID.TID 0000.0001) %MON dynstat_eta_mean             =   0.0000000000000E+00
(PID.TID 0000.0001) %MON dynstat_eta_sd               =   0.0000000000000E+00
(PID.TID 0000.0001) %MON dynstat_eta_del2             =   0.0000000000000E+00
(PID.TID 0000.0001) %MON dynstat_uvel_max             =   3.8588909729197E+01
(PID.TID 0000.0001) %MON dynstat_uvel_min             =  -2.6640751857532E+01
(PID.TID 0000.0001) %MON dynstat_uvel_mean            =   1.1767801879505E+01
(PID.TID 0000.0001) %MON dynstat_uvel_sd              =   1.8925337749668E+01
(PID.TID 0000.0001) %MON dynstat_uvel_del2            =   3.3980387131857E-02
(PID.TID 0000.0001) %MON dynstat_vvel_max             =   3.8588909729197E+01
(PID.TID 0000.0001) %MON dynstat_vvel_min             =  -2.6640751857532E+01
(PID.TID 0000.0001) %MON dynstat_vvel_mean            =   1.1767801879505E+01
(PID.TID 0000.0001) %MON dynstat_vvel_sd              =   1.8925337749668E+01
(PID.TID 0000.0001) %MON dynstat_vvel_del2            =   3.3980387131857E-02
(PID.TID 0000.0001) %MON dynstat_wvel_max             =   6.6736446215327E-15
(PID.TID 0000.0001) %MON dynstat_wvel_min             =  -6.6736446215327E-15
(PID.TID 0000.0001) %MON dynstat_wvel_mean            =   2.3939844639623E-19
(PID.TID 0000.0001) %MON dynstat_wvel_sd              =   1.5089012586666E-15
(PID.TID 0000.0001) %MON dynstat_wvel_del2            =   1.4563361156032E-15
(PID.TID 0000.0001) %MON dynstat_theta_max            =   1.8155991066664E+00
(PID.TID 0000.0001) %MON dynstat_theta_min            =   9.9992772222470E-01
(PID.TID 0000.0001) %MON dynstat_theta_mean           =   1.0066888037826E+00
(PID.TID 0000.0001) %MON dynstat_theta_sd             =   5.6423677670475E-02
(PID.TID 0000.0001) %MON dynstat_theta_del2           =   3.7960968334711E-04
(PID.TID 0000.0001) %MON dynstat_salt_max             =   1.8486991371853E+00
(PID.TID 0000.0001) %MON dynstat_salt_min             =   9.9977623248112E-01
(PID.TID 0000.0001) %MON dynstat_salt_mean            =   1.0066901484881E+00
(PID.TID 0000.0001) %MON dynstat_salt_sd              =   5.7442050257507E-02
(PID.TID 0000.0001) %MON dynstat_salt_del2            =   4.1979614570487E-04
(PID.TID 0000.0001) %MON advcfl_uvel_max              =   1.0240615062181E+00
(PID.TID 0000.0001) %MON advcfl_vvel_max              =   1.0240615062181E+00
(PID.TID 0000.0001) %MON advcfl_wvel_max              =   4.8050241275036E-16
(PID.TID 0000.0001) %MON advcfl_W_hf_max              =   0.0000000000000E+00
(PID.TID 0000.0001) %MON pe_b_mean                    =   0.0000000000000E+00
(PID.TID 0000.0001) %MON ke_max                       =   7.4475958662786E+02
(PID.TID 0000.0001) %MON ke_mean                      =   4.9660795630338E+02
(PID.TID 0000.0001) %MON ke_vol                       =   5.0990436378172E+19
(PID.TID 0000.0001) %MON vort_r_min                   =  -1.2114474455529E-05
(PID.TID 0000.0001) %MON vort_r_max                   =   1.2114474455529E-05
(PID.TID 0000.0001) %MON vort_a_mean                  =   2.4513551737851E-21
(PID.TID 0000.0001) %MON vort_a_sd                    =   9.0967845104703E-05
(PID.TID 0000.0001) %MON vort_p_mean                  =   2.4513551737851E-21
(PID.TID 0000.0001) %MON vort_p_sd                    =   9.0967845104703E-05
(PID.TID 0000.0001) %MON surfExpan_theta_mean         =   3.4389250958915E-19
(PID.TID 0000.0001) %MON surfExpan_salt_mean          =  -1.5954331089721E-20
(PID.TID 0000.0001) // =======================================================
(PID.TID 0000.0001) // End MONITOR dynamic field statistics
(PID.TID 0000.0001) // =======================================================
(PID.TID 0000.0001) // =======================================================
(PID.TID 0000.0001) // Begin MONITOR dynamic field statistics
(PID.TID 0000.0001) // =======================================================
(PID.TID 0000.0001) %MON time_tsnumber                =                   198
(PID.TID 0000.0001) %MON time_secondsf                =   7.1280000000000E+05
(PID.TID 0000.0001) %MON dynstat_eta_max              =   0.0000000000000E+00
(PID.TID 0000.0001) %MON dynstat_eta_min              =   0.0000000000000E+00
(PID.TID 0000.0001) %MON dynstat_eta_mean             =   0.0000000000000E+00
(PID.TID 0000.0001) %MON dynstat_eta_sd               =   0.0000000000000E+00
(PID.TID 0000.0001) %MON dynstat_eta_del2             =   0.0000000000000E+00
(PID.TID 0000.0001) %MON dynstat_uvel_max             =   3.8588909729197E+01
(PID.TID 0000.0001) %MON dynstat_uvel_min             =  -2.6640751857532E+01
(PID.TID 0000.0001) %MON dynstat_uvel_mean            =   1.1767801879505E+01
(PID.TID 0000.0001) %MON dynstat_uvel_sd              =   1.8925337749668E+01
(PID.TID 0000.0001) %MON dynstat_uvel_del2            =   3.3980387131857E-02
(PID.TID 0000.0001) %MON dynstat_vvel_max             =   3.8588909729197E+01
(PID.TID 0000.0001) %MON dynstat_vvel_min             =  -2.6640751857532E+01
(PID.TID 0000.0001) %MON dynstat_vvel_mean            =   1.1767801879505E+01
(PID.TID 0000.0001) %MON dynstat_vvel_sd              =   1.8925337749668E+01
(PID.TID 0000.0001) %MON dynstat_vvel_del2            =   3.3980387131857E-02
(PID.TID 0000.0001) %MON dynstat_wvel_max             =   6.6736446215327E-15
(PID.TID 0000.0001) %MON dynstat_wvel_min             =  -6.6736446215327E-15
(PID.TID 0000.0001) %MON dynstat_wvel_mean            =   2.3939844639623E-19
(PID.TID 0000.0001) %MON dynstat_wvel_sd              =   1.5089012586666E-15
(PID.TID 0000.0001) %MON dynstat_wvel_del2            =   1.4563361156032E-15
(PID.TID 0000.0001) %MON dynstat_theta_max            =   1.8136718242468E+00
(PID.TID 0000.0001) %MON dynstat_theta_min            =   9.9992638431135E-01
(PID.TID 0000.0001) %MON dynstat_theta_mean           =   1.0066888037826E+00
(PID.TID 0000.0001) %MON dynstat_theta_sd             =   5.6311238513940E-02
(PID.TID 0000.0001) %MON dynstat_theta_del2           =   3.7557767240099E-04
(PID.TID 0000.0001) %MON dynstat_salt_max             =   1.8437411093882E+00
(PID.TID 0000.0001) %MON dynstat_salt_min             =   9.9978425472240E-01
(PID.TID 0000.0001) %MON dynstat_salt_mean            =   1.0066901484881E+00
(PID.TID 0000.0001) %MON dynstat_salt_sd              =   5.7345759357067E-02
(PID.TID 0000.0001) %MON dynstat_salt_del2            =   3.9824801012515E-04
(PID.TID 0000.0001) %MON advcfl_uvel_max              =   1.0240615062181E+00
(PID.TID 0000.0001) %MON advcfl_vvel_max              =   1.0240615062181E+00
(PID.TID 0000.0001) %MON advcfl_wvel_max              =   4.8050241275036E-16
(PID.TID 0000.0001) %MON advcfl_W_hf_max              =   0.0000000000000E+00
(PID.TID 0000.0001) %MON pe_b_mean                    =   0.0000000000000E+00
(PID.TID 0000.0001) %MON ke_max                       =   7.4475958662786E+02
(PID.TID 0000.0001) %MON ke_mean                      =   4.9660795630338E+02
(PID.TID 0000.0001) %MON ke_vol                       =   5.0990436378172E+19
(PID.TID 0000.0001) %MON vort_r_min                   =  -1.2114474455529E-05
(PID.TID 0000.0001) %MON vort_r_max                   =   1.2114474455529E-05
(PID.TID 0000.0001) %MON vort_a_mean                  =   2.4513551737851E-21
(PID.TID 0000.0001) %MON vort_a_sd                    =   9.0967845104703E-05
(PID.TID 0000.0001) %MON vort_p_mean                  =   2.4513551737851E-21
(PID.TID 0000.0001) %MON vort_p_sd                    =   9.0967845104703E-05
(PID.TID 0000.0001) %MON surfExpan_theta_mean         =   9.3648237125960E-20
(PID.TID 0000.0001) %MON surfExpan_salt_mean          =  -1.0384489826966E-20
(PID.TID 0000.0001) // =======================================================
(PID.TID 0000.0001) // End MONITOR dynamic field statistics
(PID.TID 0000.0001) // =======================================================
(PID.TID 0000.0001) // =======================================================
(PID.TID 0000.0001) // Begin MONITOR dynamic field statistics
(PID.TID 0000.0001) // =======================================================
(PID.TID 0000.0001) %MON time_tsnumber                =                   204
(PID.TID 0000.0001) %MON time_secondsf                =   7.3440000000000E+05
(PID.TID 0000.0001) %MON dynstat_eta_max              =   0.0000000000000E+00
(PID.TID 0000.0001) %MON dynstat_eta_min              =   0.0000000000000E+00
(PID.TID 0000.0001) %MON dynstat_eta_mean             =   0.0000000000000E+00
(PID.TID 0000.0001) %MON dynstat_eta_sd               =   0.0000000000000E+00
(PID.TID 0000.0001) %MON dynstat_eta_del2             =   0.0000000000000E+00
(PID.TID 0000.0001) %MON dynstat_uvel_max             =   3.8588909729197E+01
(PID.TID 0000.0001) %MON dynstat_uvel_min             =  -2.6640751857532E+01
(PID.TID 0000.0001) %MON dynstat_uvel_mean            =   1.1767801879505E+01
(PID.TID 0000.0001) %MON dynstat_uvel_sd              =   1.8925337749668E+01
(PID.TID 0000.0001) %MON dynstat_uvel_del2            =   3.3980387131857E-02
(PID.TID 0000.0001) %MON dynstat_vvel_max             =   3.8588909729197E+01
(PID.TID 0000.0001) %MON dynstat_vvel_min             =  -2.6640751857532E+01
(PID.TID 0000.0001) %MON dynstat_vvel_mean            =   1.1767801879505E+01
(PID.TID 0000.0001) %MON dynstat_vvel_sd              =   1.8925337749668E+01
(PID.TID 0000.0001) %MON dynstat_vvel_del2            =   3.3980387131857E-02
(PID.TID 0000.0001) %MON dynstat_wvel_max             =   6.6736446215327E-15
(PID.TID 0000.0001) %MON dynstat_wvel_min             =  -6.6736446215327E-15
(PID.TID 0000.0001) %MON dynstat_wvel_mean            =   2.3939844639623E-19
(PID.TID 0000.0001) %MON dynstat_wvel_sd              =   1.5089012586666E-15
(PID.TID 0000.0001) %MON dynstat_wvel_del2            =   1.4563361156032E-15
(PID.TID 0000.0001) %MON dynstat_theta_max            =   1.8087102609258E+00
(PID.TID 0000.0001) %MON dynstat_theta_min            =   9.9986763271563E-01
(PID.TID 0000.0001) %MON dynstat_theta_mean           =   1.0066888037826E+00
(PID.TID 0000.0001) %MON dynstat_theta_sd             =   5.6194012841028E-02
(PID.TID 0000.0001) %MON dynstat_theta_del2           =   3.7748441557718E-04
(PID.TID 0000.0001) %MON dynstat_salt_max             =   1.8415725657937E+00
(PID.TID 0000.0001) %MON dynstat_salt_min             =   9.9965039513988E-01
(PID.TID 0000.0001) %MON dynstat_salt_mean            =   1.0066901484881E+00
(PID.TID 0000.0001) %MON dynstat_salt_sd              =   5.7231995020361E-02
(PID.TID 0000.0001) %MON dynstat_salt_del2            =   3.9000521759934E-04
(PID.TID 0000.0001) %MON advcfl_uvel_max              =   1.0240615062181E+00
(PID.TID 0000.0001) %MON advcfl_vvel_max              =   1.0240615062181E+00
(PID.TID 0000.0001) %MON advcfl_wvel_max              =   4.8050241275036E-16
(PID.TID 0000.0001) %MON advcfl_W_hf_max              =   0.0000000000000E+00
(PID.TID 0000.0001) %MON pe_b_mean                    =   0.0000000000000E+00
(PID.TID 0000.0001) %MON ke_max                       =   7.4475958662786E+02
(PID.TID 0000.0001) %MON ke_mean                      =   4.9660795630338E+02
(PID.TID 0000.0001) %MON ke_vol                       =   5.0990436378172E+19
(PID.TID 0000.0001) %MON vort_r_min                   =  -1.2114474455529E-05
(PID.TID 0000.0001) %MON vort_r_max                   =   1.2114474455529E-05
(PID.TID 0000.0001) %MON vort_a_mean                  =   2.4513551737851E-21
(PID.TID 0000.0001) %MON vort_a_sd                    =   9.0967845104703E-05
(PID.TID 0000.0001) %MON vort_p_mean                  =   2.4513551737851E-21
(PID.TID 0000.0001) %MON vort_p_sd                    =   9.0967845104703E-05
(PID.TID 0000.0001) %MON surfExpan_theta_mean         =   2.0607499836791E-19
(PID.TID 0000.0001) %MON surfExpan_salt_mean          =   2.2530402747420E-19
(PID.TID 0000.0001) // =======================================================
(PID.TID 0000.0001) // End MONITOR dynamic field statistics
(PID.TID 0000.0001) // =======================================================
(PID.TID 0000.0001) // =======================================================
(PID.TID 0000.0001) // Begin MONITOR dynamic field statistics
(PID.TID 0000.0001) // =======================================================
(PID.TID 0000.0001) %MON time_tsnumber                =                   210
(PID.TID 0000.0001) %MON time_secondsf                =   7.5600000000000E+05
(PID.TID 0000.0001) %MON dynstat_eta_max              =   0.0000000000000E+00
(PID.TID 0000.0001) %MON dynstat_eta_min              =   0.0000000000000E+00
(PID.TID 0000.0001) %MON dynstat_eta_mean             =   0.0000000000000E+00
(PID.TID 0000.0001) %MON dynstat_eta_sd               =   0.0000000000000E+00
(PID.TID 0000.0001) %MON dynstat_eta_del2             =   0.0000000000000E+00
(PID.TID 0000.0001) %MON dynstat_uvel_max             =   3.8588909729197E+01
(PID.TID 0000.0001) %MON dynstat_uvel_min             =  -2.6640751857532E+01
(PID.TID 0000.0001) %MON dynstat_uvel_mean            =   1.1767801879505E+01
(PID.TID 0000.0001) %MON dynstat_uvel_sd              =   1.8925337749668E+01
(PID.TID 0000.0001) %MON dynstat_uvel_del2            =   3.3980387131857E-02
(PID.TID 0000.0001) %MON dynstat_vvel_max             =   3.8588909729197E+01
(PID.TID 0000.0001) %MON dynstat_vvel_min             =  -2.6640751857532E+01
(PID.TID 0000.0001) %MON dynstat_vvel_mean            =   1.1767801879505E+01
(PID.TID 0000.0001) %MON dynstat_vvel_sd              =   1.8925337749668E+01
(PID.TID 0000.0001) %MON dynstat_vvel_del2            =   3.3980387131857E-02
(PID.TID 0000.0001) %MON dynstat_wvel_max             =   6.6736446215327E-15
(PID.TID 0000.0001) %MON dynstat_wvel_min             =  -6.6736446215327E-15
(PID.TID 0000.0001) %MON dynstat_wvel_mean            =   2.3939844639623E-19
(PID.TID 0000.0001) %MON dynstat_wvel_sd              =   1.5089012586666E-15
(PID.TID 0000.0001) %MON dynstat_wvel_del2            =   1.4563361156032E-15
(PID.TID 0000.0001) %MON dynstat_theta_max            =   1.8038722929626E+00
(PID.TID 0000.0001) %MON dynstat_theta_min            =   9.9989682057051E-01
(PID.TID 0000.0001) %MON dynstat_theta_mean           =   1.0066888037826E+00
(PID.TID 0000.0001) %MON dynstat_theta_sd             =   5.6075339288513E-02
(PID.TID 0000.0001) %MON dynstat_theta_del2           =   3.7699956662110E-04
(PID.TID 0000.0001) %MON dynstat_salt_max             =   1.8366522397215E+00
(PID.TID 0000.0001) %MON dynstat_salt_min             =   9.9946165077291E-01
(PID.TID 0000.0001) %MON dynstat_salt_mean            =   1.0066901484881E+00
(PID.TID 0000.0001) %MON dynstat_salt_sd              =   5.7116158471175E-02
(PID.TID 0000.0001) %MON dynstat_salt_del2            =   3.8700098858569E-04
(PID.TID 0000.0001) %MON advcfl_uvel_max              =   1.0240615062181E+00
(PID.TID 0000.0001) %MON advcfl_vvel_max              =   1.0240615062181E+00
(PID.TID 0000.0001) %MON advcfl_wvel_max              =   4.8050241275036E-16
(PID.TID 0000.0001) %MON advcfl_W_hf_max              =   0.0000000000000E+00
(PID.TID 0000.0001) %MON pe_b_mean                    =   0.0000000000000E+00
(PID.TID 0000.0001) %MON ke_max                       =   7.4475958662786E+02
(PID.TID 0000.0001) %MON ke_mean                      =   4.9660795630338E+02
(PID.TID 0000.0001) %MON ke_vol                       =   5.0990436378172E+19
(PID.TID 0000.0001) %MON vort_r_min                   =  -1.2114474455529E-05
(PID.TID 0000.0001) %MON vort_r_max                   =   1.2114474455529E-05
(PID.TID 0000.0001) %MON vort_a_mean                  =   2.4513551737851E-21
(PID.TID 0000.0001) %MON vort_a_sd                    =   9.0967845104703E-05
(PID.TID 0000.0001) %MON vort_p_mean                  =   2.4513551737851E-21
(PID.TID 0000.0001) %MON vort_p_sd                    =   9.0967845104703E-05
(PID.TID 0000.0001) %MON surfExpan_theta_mean         =   1.5125057544852E-19
(PID.TID 0000.0001) %MON surfExpan_salt_mean          =   3.1192078164470E-19
(PID.TID 0000.0001) // =======================================================
(PID.TID 0000.0001) // End MONITOR dynamic field statistics
(PID.TID 0000.0001) // =======================================================
(PID.TID 0000.0001) // =======================================================
(PID.TID 0000.0001) // Begin MONITOR dynamic field statistics
(PID.TID 0000.0001) // =======================================================
(PID.TID 0000.0001) %MON time_tsnumber                =                   216
(PID.TID 0000.0001) %MON time_secondsf                =   7.7760000000000E+05
(PID.TID 0000.0001) %MON dynstat_eta_max              =   0.0000000000000E+00
(PID.TID 0000.0001) %MON dynstat_eta_min              =   0.0000000000000E+00
(PID.TID 0000.0001) %MON dynstat_eta_mean             =   0.0000000000000E+00
(PID.TID 0000.0001) %MON dynstat_eta_sd               =   0.0000000000000E+00
(PID.TID 0000.0001) %MON dynstat_eta_del2             =   0.0000000000000E+00
(PID.TID 0000.0001) %MON dynstat_uvel_max             =   3.8588909729197E+01
(PID.TID 0000.0001) %MON dynstat_uvel_min             =  -2.6640751857532E+01
(PID.TID 0000.0001) %MON dynstat_uvel_mean            =   1.1767801879505E+01
(PID.TID 0000.0001) %MON dynstat_uvel_sd              =   1.8925337749668E+01
(PID.TID 0000.0001) %MON dynstat_uvel_del2            =   3.3980387131857E-02
(PID.TID 0000.0001) %MON dynstat_vvel_max             =   3.8588909729197E+01
(PID.TID 0000.0001) %MON dynstat_vvel_min             =  -2.6640751857532E+01
(PID.TID 0000.0001) %MON dynstat_vvel_mean            =   1.1767801879505E+01
(PID.TID 0000.0001) %MON dynstat_vvel_sd              =   1.8925337749668E+01
(PID.TID 0000.0001) %MON dynstat_vvel_del2            =   3.3980387131857E-02
(PID.TID 0000.0001) %MON dynstat_wvel_max             =   6.6736446215327E-15
(PID.TID 0000.0001) %MON dynstat_wvel_min             =  -6.6736446215327E-15
(PID.TID 0000.0001) %MON dynstat_wvel_mean            =   2.3939844639623E-19
(PID.TID 0000.0001) %MON dynstat_wvel_sd              =   1.5089012586666E-15
(PID.TID 0000.0001) %MON dynstat_wvel_del2            =   1.4563361156032E-15
(PID.TID 0000.0001) %MON dynstat_theta_max            =   1.7999026623231E+00
(PID.TID 0000.0001) %MON dynstat_theta_min            =   9.9985593758873E-01
(PID.TID 0000.0001) %MON dynstat_theta_mean           =   1.0066888037826E+00
(PID.TID 0000.0001) %MON dynstat_theta_sd             =   5.5958666791989E-02
(PID.TID 0000.0001) %MON dynstat_theta_del2           =   3.7305941779522E-04
(PID.TID 0000.0001) %MON dynstat_salt_max             =   1.8327172695260E+00
(PID.TID 0000.0001) %MON dynstat_salt_min             =   9.9952281975275E-01
(PID.TID 0000.0001) %MON dynstat_salt_mean            =   1.0066901484881E+00
(PID.TID 0000.0001) %MON dynstat_salt_sd              =   5.6998105066197E-02
(PID.TID 0000.0001) %MON dynstat_salt_del2            =   3.8533174606706E-04
(PID.TID 0000.0001) %MON advcfl_uvel_max              =   1.0240615062181E+00
(PID.TID 0000.0001) %MON advcfl_vvel_max              =   1.0240615062181E+00
(PID.TID 0000.0001) %MON advcfl_wvel_max              =   4.8050241275036E-16
(PID.TID 0000.0001) %MON advcfl_W_hf_max              =   0.0000000000000E+00
(PID.TID 0000.0001) %MON pe_b_mean                    =   0.0000000000000E+00
(PID.TID 0000.0001) %MON ke_max                       =   7.4475958662786E+02
(PID.TID 0000.0001) %MON ke_mean                      =   4.9660795630338E+02
(PID.TID 0000.0001) %MON ke_vol                       =   5.0990436378172E+19
(PID.TID 0000.0001) %MON vort_r_min                   =  -1.2114474455529E-05
(PID.TID 0000.0001) %MON vort_r_max                   =   1.2114474455529E-05
(PID.TID 0000.0001) %MON vort_a_mean                  =   2.4513551737851E-21
(PID.TID 0000.0001) %MON vort_a_sd                    =   9.0967845104703E-05
(PID.TID 0000.0001) %MON vort_p_mean                  =   2.4513551737851E-21
(PID.TID 0000.0001) %MON vort_p_sd                    =   9.0967845104703E-05
(PID.TID 0000.0001) %MON surfExpan_theta_mean         =   2.4389365715390E-19
(PID.TID 0000.0001) %MON surfExpan_salt_mean          =   2.3720215876621E-19
(PID.TID 0000.0001) // =======================================================
(PID.TID 0000.0001) // End MONITOR dynamic field statistics
(PID.TID 0000.0001) // =======================================================
(PID.TID 0000.0001) // =======================================================
(PID.TID 0000.0001) // Begin MONITOR dynamic field statistics
(PID.TID 0000.0001) // =======================================================
(PID.TID 0000.0001) %MON time_tsnumber                =                   222
(PID.TID 0000.0001) %MON time_secondsf                =   7.9920000000000E+05
(PID.TID 0000.0001) %MON dynstat_eta_max              =   0.0000000000000E+00
(PID.TID 0000.0001) %MON dynstat_eta_min              =   0.0000000000000E+00
(PID.TID 0000.0001) %MON dynstat_eta_mean             =   0.0000000000000E+00
(PID.TID 0000.0001) %MON dynstat_eta_sd               =   0.0000000000000E+00
(PID.TID 0000.0001) %MON dynstat_eta_del2             =   0.0000000000000E+00
(PID.TID 0000.0001) %MON dynstat_uvel_max             =   3.8588909729197E+01
(PID.TID 0000.0001) %MON dynstat_uvel_min             =  -2.6640751857532E+01
(PID.TID 0000.0001) %MON dynstat_uvel_mean            =   1.1767801879505E+01
(PID.TID 0000.0001) %MON dynstat_uvel_sd              =   1.8925337749668E+01
(PID.TID 0000.0001) %MON dynstat_uvel_del2            =   3.3980387131857E-02
(PID.TID 0000.0001) %MON dynstat_vvel_max             =   3.8588909729197E+01
(PID.TID 0000.0001) %MON dynstat_vvel_min             =  -2.6640751857532E+01
(PID.TID 0000.0001) %MON dynstat_vvel_mean            =   1.1767801879505E+01
(PID.TID 0000.0001) %MON dynstat_vvel_sd              =   1.8925337749668E+01
(PID.TID 0000.0001) %MON dynstat_vvel_del2            =   3.3980387131857E-02
(PID.TID 0000.0001) %MON dynstat_wvel_max             =   6.6736446215327E-15
(PID.TID 0000.0001) %MON dynstat_wvel_min             =  -6.6736446215327E-15
(PID.TID 0000.0001) %MON dynstat_wvel_mean            =   2.3939844639623E-19
(PID.TID 0000.0001) %MON dynstat_wvel_sd              =   1.5089012586666E-15
(PID.TID 0000.0001) %MON dynstat_wvel_del2            =   1.4563361156032E-15
(PID.TID 0000.0001) %MON dynstat_theta_max            =   1.7995024136476E+00
(PID.TID 0000.0001) %MON dynstat_theta_min            =   9.9981454824614E-01
(PID.TID 0000.0001) %MON dynstat_theta_mean           =   1.0066888037826E+00
(PID.TID 0000.0001) %MON dynstat_theta_sd             =   5.5839923328736E-02
(PID.TID 0000.0001) %MON dynstat_theta_del2           =   3.7507353142386E-04
(PID.TID 0000.0001) %MON dynstat_salt_max             =   1.8283220277842E+00
(PID.TID 0000.0001) %MON dynstat_salt_min             =   9.9954121913171E-01
(PID.TID 0000.0001) %MON dynstat_salt_mean            =   1.0066901484881E+00
(PID.TID 0000.0001) %MON dynstat_salt_sd              =   5.6875653088863E-02
(PID.TID 0000.0001) %MON dynstat_salt_del2            =   3.8467623478288E-04
(PID.TID 0000.0001) %MON advcfl_uvel_max              =   1.0240615062181E+00
(PID.TID 0000.0001) %MON advcfl_vvel_max              =   1.0240615062181E+00
(PID.TID 0000.0001) %MON advcfl_wvel_max              =   4.8050241275036E-16
(PID.TID 0000.0001) %MON advcfl_W_hf_max              =   0.0000000000000E+00
(PID.TID 0000.0001) %MON pe_b_mean                    =   0.0000000000000E+00
(PID.TID 0000.0001) %MON ke_max                       =   7.4475958662786E+02
(PID.TID 0000.0001) %MON ke_mean                      =   4.9660795630338E+02
(PID.TID 0000.0001) %MON ke_vol                       =   5.0990436378172E+19
(PID.TID 0000.0001) %MON vort_r_min                   =  -1.2114474455529E-05
(PID.TID 0000.0001) %MON vort_r_max                   =   1.2114474455529E-05
(PID.TID 0000.0001) %MON vort_a_mean                  =   2.4513551737851E-21
(PID.TID 0000.0001) %MON vort_a_sd                    =   9.0967845104703E-05
(PID.TID 0000.0001) %MON vort_p_mean                  =   2.4513551737851E-21
(PID.TID 0000.0001) %MON vort_p_sd                    =   9.0967845104703E-05
(PID.TID 0000.0001) %MON surfExpan_theta_mean         =   3.1841149825642E-19
(PID.TID 0000.0001) %MON surfExpan_salt_mean          =   1.7321817271918E-19
(PID.TID 0000.0001) // =======================================================
(PID.TID 0000.0001) // End MONITOR dynamic field statistics
(PID.TID 0000.0001) // =======================================================
(PID.TID 0000.0001) // =======================================================
(PID.TID 0000.0001) // Begin MONITOR dynamic field statistics
(PID.TID 0000.0001) // =======================================================
(PID.TID 0000.0001) %MON time_tsnumber                =                   228
(PID.TID 0000.0001) %MON time_secondsf                =   8.2080000000000E+05
(PID.TID 0000.0001) %MON dynstat_eta_max              =   0.0000000000000E+00
(PID.TID 0000.0001) %MON dynstat_eta_min              =   0.0000000000000E+00
(PID.TID 0000.0001) %MON dynstat_eta_mean             =   0.0000000000000E+00
(PID.TID 0000.0001) %MON dynstat_eta_sd               =   0.0000000000000E+00
(PID.TID 0000.0001) %MON dynstat_eta_del2             =   0.0000000000000E+00
(PID.TID 0000.0001) %MON dynstat_uvel_max             =   3.8588909729197E+01
(PID.TID 0000.0001) %MON dynstat_uvel_min             =  -2.6640751857532E+01
(PID.TID 0000.0001) %MON dynstat_uvel_mean            =   1.1767801879505E+01
(PID.TID 0000.0001) %MON dynstat_uvel_sd              =   1.8925337749668E+01
(PID.TID 0000.0001) %MON dynstat_uvel_del2            =   3.3980387131857E-02
(PID.TID 0000.0001) %MON dynstat_vvel_max             =   3.8588909729197E+01
(PID.TID 0000.0001) %MON dynstat_vvel_min             =  -2.6640751857532E+01
(PID.TID 0000.0001) %MON dynstat_vvel_mean            =   1.1767801879505E+01
(PID.TID 0000.0001) %MON dynstat_vvel_sd              =   1.8925337749668E+01
(PID.TID 0000.0001) %MON dynstat_vvel_del2            =   3.3980387131857E-02
(PID.TID 0000.0001) %MON dynstat_wvel_max             =   6.6736446215327E-15
(PID.TID 0000.0001) %MON dynstat_wvel_min             =  -6.6736446215327E-15
(PID.TID 0000.0001) %MON dynstat_wvel_mean            =   2.3939844639623E-19
(PID.TID 0000.0001) %MON dynstat_wvel_sd              =   1.5089012586666E-15
(PID.TID 0000.0001) %MON dynstat_wvel_del2            =   1.4563361156032E-15
(PID.TID 0000.0001) %MON dynstat_theta_max            =   1.7961453161549E+00
(PID.TID 0000.0001) %MON dynstat_theta_min            =   9.9984976433548E-01
(PID.TID 0000.0001) %MON dynstat_theta_mean           =   1.0066888037826E+00
(PID.TID 0000.0001) %MON dynstat_theta_sd             =   5.5724427280551E-02
(PID.TID 0000.0001) %MON dynstat_theta_del2           =   3.7219558529281E-04
(PID.TID 0000.0001) %MON dynstat_salt_max             =   1.8272663801103E+00
(PID.TID 0000.0001) %MON dynstat_salt_min             =   9.9952659255292E-01
(PID.TID 0000.0001) %MON dynstat_salt_mean            =   1.0066901484881E+00
(PID.TID 0000.0001) %MON dynstat_salt_sd              =   5.6749199213903E-02
(PID.TID 0000.0001) %MON dynstat_salt_del2            =   3.8166294517644E-04
(PID.TID 0000.0001) %MON advcfl_uvel_max              =   1.0240615062181E+00
(PID.TID 0000.0001) %MON advcfl_vvel_max              =   1.0240615062181E+00
(PID.TID 0000.0001) %MON advcfl_wvel_max              =   4.8050241275036E-16
(PID.TID 0000.0001) %MON advcfl_W_hf_max              =   0.0000000000000E+00
(PID.TID 0000.0001) %MON pe_b_mean                    =   0.0000000000000E+00
(PID.TID 0000.0001) %MON ke_max                       =   7.4475958662786E+02
(PID.TID 0000.0001) %MON ke_mean                      =   4.9660795630338E+02
(PID.TID 0000.0001) %MON ke_vol                       =   5.0990436378172E+19
(PID.TID 0000.0001) %MON vort_r_min                   =  -1.2114474455529E-05
(PID.TID 0000.0001) %MON vort_r_max                   =   1.2114474455529E-05
(PID.TID 0000.0001) %MON vort_a_mean                  =   2.4513551737851E-21
(PID.TID 0000.0001) %MON vort_a_sd                    =   9.0967845104703E-05
(PID.TID 0000.0001) %MON vort_p_mean                  =   2.4513551737851E-21
(PID.TID 0000.0001) %MON vort_p_sd                    =   9.0967845104703E-05
(PID.TID 0000.0001) %MON surfExpan_theta_mean         =   2.8996813109701E-19
(PID.TID 0000.0001) %MON surfExpan_salt_mean          =   2.7208191806225E-19
(PID.TID 0000.0001) // =======================================================
(PID.TID 0000.0001) // End MONITOR dynamic field statistics
(PID.TID 0000.0001) // =======================================================
(PID.TID 0000.0001) // =======================================================
(PID.TID 0000.0001) // Begin MONITOR dynamic field statistics
(PID.TID 0000.0001) // =======================================================
(PID.TID 0000.0001) %MON time_tsnumber                =                   234
(PID.TID 0000.0001) %MON time_secondsf                =   8.4240000000000E+05
(PID.TID 0000.0001) %MON dynstat_eta_max              =   0.0000000000000E+00
(PID.TID 0000.0001) %MON dynstat_eta_min              =   0.0000000000000E+00
(PID.TID 0000.0001) %MON dynstat_eta_mean             =   0.0000000000000E+00
(PID.TID 0000.0001) %MON dynstat_eta_sd               =   0.0000000000000E+00
(PID.TID 0000.0001) %MON dynstat_eta_del2             =   0.0000000000000E+00
(PID.TID 0000.0001) %MON dynstat_uvel_max             =   3.8588909729197E+01
(PID.TID 0000.0001) %MON dynstat_uvel_min             =  -2.6640751857532E+01
(PID.TID 0000.0001) %MON dynstat_uvel_mean            =   1.1767801879505E+01
(PID.TID 0000.0001) %MON dynstat_uvel_sd              =   1.8925337749668E+01
(PID.TID 0000.0001) %MON dynstat_uvel_del2            =   3.3980387131857E-02
(PID.TID 0000.0001) %MON dynstat_vvel_max             =   3.8588909729197E+01
(PID.TID 0000.0001) %MON dynstat_vvel_min             =  -2.6640751857532E+01
(PID.TID 0000.0001) %MON dynstat_vvel_mean            =   1.1767801879505E+01
(PID.TID 0000.0001) %MON dynstat_vvel_sd              =   1.8925337749668E+01
(PID.TID 0000.0001) %MON dynstat_vvel_del2            =   3.3980387131857E-02
(PID.TID 0000.0001) %MON dynstat_wvel_max             =   6.6736446215327E-15
(PID.TID 0000.0001) %MON dynstat_wvel_min             =  -6.6736446215327E-15
(PID.TID 0000.0001) %MON dynstat_wvel_mean            =   2.3939844639623E-19
(PID.TID 0000.0001) %MON dynstat_wvel_sd              =   1.5089012586666E-15
(PID.TID 0000.0001) %MON dynstat_wvel_del2            =   1.4563361156032E-15
(PID.TID 0000.0001) %MON dynstat_theta_max            =   1.7926291648901E+00
(PID.TID 0000.0001) %MON dynstat_theta_min            =   9.9987404903602E-01
(PID.TID 0000.0001) %MON dynstat_theta_mean           =   1.0066888037826E+00
(PID.TID 0000.0001) %MON dynstat_theta_sd             =   5.5612503270746E-02
(PID.TID 0000.0001) %MON dynstat_theta_del2           =   3.6964842080191E-04
(PID.TID 0000.0001) %MON dynstat_salt_max             =   1.8194956625482E+00
(PID.TID 0000.0001) %MON dynstat_salt_min             =   9.9959592502027E-01
(PID.TID 0000.0001) %MON dynstat_salt_mean            =   1.0066901484881E+00
(PID.TID 0000.0001) %MON dynstat_salt_sd              =   5.6623726951470E-02
(PID.TID 0000.0001) %MON dynstat_salt_del2            =   3.8105220245873E-04
(PID.TID 0000.0001) %MON advcfl_uvel_max              =   1.0240615062181E+00
(PID.TID 0000.0001) %MON advcfl_vvel_max              =   1.0240615062181E+00
(PID.TID 0000.0001) %MON advcfl_wvel_max              =   4.8050241275036E-16
(PID.TID 0000.0001) %MON advcfl_W_hf_max              =   0.0000000000000E+00
(PID.TID 0000.0001) %MON pe_b_mean                    =   0.0000000000000E+00
(PID.TID 0000.0001) %MON ke_max                       =   7.4475958662786E+02
(PID.TID 0000.0001) %MON ke_mean                      =   4.9660795630338E+02
(PID.TID 0000.0001) %MON ke_vol                       =   5.0990436378172E+19
(PID.TID 0000.0001) %MON vort_r_min                   =  -1.2114474455529E-05
(PID.TID 0000.0001) %MON vort_r_max                   =   1.2114474455529E-05
(PID.TID 0000.0001) %MON vort_a_mean                  =   2.4513551737851E-21
(PID.TID 0000.0001) %MON vort_a_sd                    =   9.0967845104703E-05
(PID.TID 0000.0001) %MON vort_p_mean                  =   2.4513551737851E-21
(PID.TID 0000.0001) %MON vort_p_sd                    =   9.0967845104703E-05
(PID.TID 0000.0001) %MON surfExpan_theta_mean         =   3.6152268020743E-19
(PID.TID 0000.0001) %MON surfExpan_salt_mean          =   4.9826075866584E-19
(PID.TID 0000.0001) // =======================================================
(PID.TID 0000.0001) // End MONITOR dynamic field statistics
(PID.TID 0000.0001) // =======================================================
(PID.TID 0000.0001) // =======================================================
(PID.TID 0000.0001) // Begin MONITOR dynamic field statistics
(PID.TID 0000.0001) // =======================================================
(PID.TID 0000.0001) %MON time_tsnumber                =                   240
(PID.TID 0000.0001) %MON time_secondsf                =   8.6400000000000E+05
(PID.TID 0000.0001) %MON dynstat_eta_max              =   0.0000000000000E+00
(PID.TID 0000.0001) %MON dynstat_eta_min              =   0.0000000000000E+00
(PID.TID 0000.0001) %MON dynstat_eta_mean             =   0.0000000000000E+00
(PID.TID 0000.0001) %MON dynstat_eta_sd               =   0.0000000000000E+00
(PID.TID 0000.0001) %MON dynstat_eta_del2             =   0.0000000000000E+00
(PID.TID 0000.0001) %MON dynstat_uvel_max             =   3.8588909729197E+01
(PID.TID 0000.0001) %MON dynstat_uvel_min             =  -2.6640751857532E+01
(PID.TID 0000.0001) %MON dynstat_uvel_mean            =   1.1767801879505E+01
(PID.TID 0000.0001) %MON dynstat_uvel_sd              =   1.8925337749668E+01
(PID.TID 0000.0001) %MON dynstat_uvel_del2            =   3.3980387131857E-02
(PID.TID 0000.0001) %MON dynstat_vvel_max             =   3.8588909729197E+01
(PID.TID 0000.0001) %MON dynstat_vvel_min             =  -2.6640751857532E+01
(PID.TID 0000.0001) %MON dynstat_vvel_mean            =   1.1767801879505E+01
(PID.TID 0000.0001) %MON dynstat_vvel_sd              =   1.8925337749668E+01
(PID.TID 0000.0001) %MON dynstat_vvel_del2            =   3.3980387131857E-02
(PID.TID 0000.0001) %MON dynstat_wvel_max             =   6.6736446215327E-15
(PID.TID 0000.0001) %MON dynstat_wvel_min             =  -6.6736446215327E-15
(PID.TID 0000.0001) %MON dynstat_wvel_mean            =   2.3939844639623E-19
(PID.TID 0000.0001) %MON dynstat_wvel_sd              =   1.5089012586666E-15
(PID.TID 0000.0001) %MON dynstat_wvel_del2            =   1.4563361156032E-15
(PID.TID 0000.0001) %MON dynstat_theta_max            =   1.7896756091813E+00
(PID.TID 0000.0001) %MON dynstat_theta_min            =   9.9988693509953E-01
(PID.TID 0000.0001) %MON dynstat_theta_mean           =   1.0066888037826E+00
(PID.TID 0000.0001) %MON dynstat_theta_sd             =   5.5508456803654E-02
(PID.TID 0000.0001) %MON dynstat_theta_del2           =   3.6982304244641E-04
(PID.TID 0000.0001) %MON dynstat_salt_max             =   1.8175717169301E+00
(PID.TID 0000.0001) %MON dynstat_salt_min             =   9.9963220499473E-01
(PID.TID 0000.0001) %MON dynstat_salt_mean            =   1.0066901484881E+00
(PID.TID 0000.0001) %MON dynstat_salt_sd              =   5.6501478843749E-02
(PID.TID 0000.0001) %MON dynstat_salt_del2            =   3.8760587139785E-04
(PID.TID 0000.0001) %MON advcfl_uvel_max              =   1.0240615062181E+00
(PID.TID 0000.0001) %MON advcfl_vvel_max              =   1.0240615062181E+00
(PID.TID 0000.0001) %MON advcfl_wvel_max              =   4.8050241275036E-16
(PID.TID 0000.0001) %MON advcfl_W_hf_max              =   0.0000000000000E+00
(PID.TID 0000.0001) %MON pe_b_mean                    =   0.0000000000000E+00
(PID.TID 0000.0001) %MON ke_max                       =   7.4475958662786E+02
(PID.TID 0000.0001) %MON ke_mean                      =   4.9660795630338E+02
(PID.TID 0000.0001) %MON ke_vol                       =   5.0990436378172E+19
(PID.TID 0000.0001) %MON vort_r_min                   =  -1.2114474455529E-05
(PID.TID 0000.0001) %MON vort_r_max                   =   1.2114474455529E-05
(PID.TID 0000.0001) %MON vort_a_mean                  =   2.4513551737851E-21
(PID.TID 0000.0001) %MON vort_a_sd                    =   9.0967845104703E-05
(PID.TID 0000.0001) %MON vort_p_mean                  =   2.4513551737851E-21
(PID.TID 0000.0001) %MON vort_p_sd                    =   9.0967845104703E-05
(PID.TID 0000.0001) %MON surfExpan_theta_mean         =   1.0400373146686E-19
(PID.TID 0000.0001) %MON surfExpan_salt_mean          =   4.9461247712956E-19
(PID.TID 0000.0001) // =======================================================
(PID.TID 0000.0001) // End MONITOR dynamic field statistics
(PID.TID 0000.0001) // =======================================================
(PID.TID 0000.0001) // =======================================================
(PID.TID 0000.0001) // Begin MONITOR dynamic field statistics
(PID.TID 0000.0001) // =======================================================
(PID.TID 0000.0001) %MON time_tsnumber                =                   246
(PID.TID 0000.0001) %MON time_secondsf                =   8.8560000000000E+05
(PID.TID 0000.0001) %MON dynstat_eta_max              =   0.0000000000000E+00
(PID.TID 0000.0001) %MON dynstat_eta_min              =   0.0000000000000E+00
(PID.TID 0000.0001) %MON dynstat_eta_mean             =   0.0000000000000E+00
(PID.TID 0000.0001) %MON dynstat_eta_sd               =   0.0000000000000E+00
(PID.TID 0000.0001) %MON dynstat_eta_del2             =   0.0000000000000E+00
(PID.TID 0000.0001) %MON dynstat_uvel_max             =   3.8588909729197E+01
(PID.TID 0000.0001) %MON dynstat_uvel_min             =  -2.6640751857532E+01
(PID.TID 0000.0001) %MON dynstat_uvel_mean            =   1.1767801879505E+01
(PID.TID 0000.0001) %MON dynstat_uvel_sd              =   1.8925337749668E+01
(PID.TID 0000.0001) %MON dynstat_uvel_del2            =   3.3980387131857E-02
(PID.TID 0000.0001) %MON dynstat_vvel_max             =   3.8588909729197E+01
(PID.TID 0000.0001) %MON dynstat_vvel_min             =  -2.6640751857532E+01
(PID.TID 0000.0001) %MON dynstat_vvel_mean            =   1.1767801879505E+01
(PID.TID 0000.0001) %MON dynstat_vvel_sd              =   1.8925337749668E+01
(PID.TID 0000.0001) %MON dynstat_vvel_del2            =   3.3980387131857E-02
(PID.TID 0000.0001) %MON dynstat_wvel_max             =   6.6736446215327E-15
(PID.TID 0000.0001) %MON dynstat_wvel_min             =  -6.6736446215327E-15
(PID.TID 0000.0001) %MON dynstat_wvel_mean            =   2.3939844639623E-19
(PID.TID 0000.0001) %MON dynstat_wvel_sd              =   1.5089012586666E-15
(PID.TID 0000.0001) %MON dynstat_wvel_del2            =   1.4563361156032E-15
(PID.TID 0000.0001) %MON dynstat_theta_max            =   1.7886266470224E+00
(PID.TID 0000.0001) %MON dynstat_theta_min            =   9.9989654340604E-01
(PID.TID 0000.0001) %MON dynstat_theta_mean           =   1.0066888037826E+00
(PID.TID 0000.0001) %MON dynstat_theta_sd             =   5.5412541684488E-02
(PID.TID 0000.0001) %MON dynstat_theta_del2           =   3.6763619112151E-04
(PID.TID 0000.0001) %MON dynstat_salt_max             =   1.8162372659101E+00
(PID.TID 0000.0001) %MON dynstat_salt_min             =   9.9966264475873E-01
(PID.TID 0000.0001) %MON dynstat_salt_mean            =   1.0066901484881E+00
(PID.TID 0000.0001) %MON dynstat_salt_sd              =   5.6411954256483E-02
(PID.TID 0000.0001) %MON dynstat_salt_del2            =   4.0083446703279E-04
(PID.TID 0000.0001) %MON advcfl_uvel_max              =   1.0240615062181E+00
(PID.TID 0000.0001) %MON advcfl_vvel_max              =   1.0240615062181E+00
(PID.TID 0000.0001) %MON advcfl_wvel_max              =   4.8050241275036E-16
(PID.TID 0000.0001) %MON advcfl_W_hf_max              =   0.0000000000000E+00
(PID.TID 0000.0001) %MON pe_b_mean                    =   0.0000000000000E+00
(PID.TID 0000.0001) %MON ke_max                       =   7.4475958662786E+02
(PID.TID 0000.0001) %MON ke_mean                      =   4.9660795630338E+02
(PID.TID 0000.0001) %MON ke_vol                       =   5.0990436378172E+19
(PID.TID 0000.0001) %MON vort_r_min                   =  -1.2114474455529E-05
(PID.TID 0000.0001) %MON vort_r_max                   =   1.2114474455529E-05
(PID.TID 0000.0001) %MON vort_a_mean                  =   2.4513551737851E-21
(PID.TID 0000.0001) %MON vort_a_sd                    =   9.0967845104703E-05
(PID.TID 0000.0001) %MON vort_p_mean                  =   2.4513551737851E-21
(PID.TID 0000.0001) %MON vort_p_sd                    =   9.0967845104703E-05
(PID.TID 0000.0001) %MON surfExpan_theta_mean         =  -8.4956326171179E-20
(PID.TID 0000.0001) %MON surfExpan_salt_mean          =   5.5429128047765E-19
(PID.TID 0000.0001) // =======================================================
(PID.TID 0000.0001) // End MONITOR dynamic field statistics
(PID.TID 0000.0001) // =======================================================
(PID.TID 0000.0001) // =======================================================
(PID.TID 0000.0001) // Begin MONITOR dynamic field statistics
(PID.TID 0000.0001) // =======================================================
(PID.TID 0000.0001) %MON time_tsnumber                =                   252
(PID.TID 0000.0001) %MON time_secondsf                =   9.0720000000000E+05
(PID.TID 0000.0001) %MON dynstat_eta_max              =   0.0000000000000E+00
(PID.TID 0000.0001) %MON dynstat_eta_min              =   0.0000000000000E+00
(PID.TID 0000.0001) %MON dynstat_eta_mean             =   0.0000000000000E+00
(PID.TID 0000.0001) %MON dynstat_eta_sd               =   0.0000000000000E+00
(PID.TID 0000.0001) %MON dynstat_eta_del2             =   0.0000000000000E+00
(PID.TID 0000.0001) %MON dynstat_uvel_max             =   3.8588909729197E+01
(PID.TID 0000.0001) %MON dynstat_uvel_min             =  -2.6640751857532E+01
(PID.TID 0000.0001) %MON dynstat_uvel_mean            =   1.1767801879505E+01
(PID.TID 0000.0001) %MON dynstat_uvel_sd              =   1.8925337749668E+01
(PID.TID 0000.0001) %MON dynstat_uvel_del2            =   3.3980387131857E-02
(PID.TID 0000.0001) %MON dynstat_vvel_max             =   3.8588909729197E+01
(PID.TID 0000.0001) %MON dynstat_vvel_min             =  -2.6640751857532E+01
(PID.TID 0000.0001) %MON dynstat_vvel_mean            =   1.1767801879505E+01
(PID.TID 0000.0001) %MON dynstat_vvel_sd              =   1.8925337749668E+01
(PID.TID 0000.0001) %MON dynstat_vvel_del2            =   3.3980387131857E-02
(PID.TID 0000.0001) %MON dynstat_wvel_max             =   6.6736446215327E-15
(PID.TID 0000.0001) %MON dynstat_wvel_min             =  -6.6736446215327E-15
(PID.TID 0000.0001) %MON dynstat_wvel_mean            =   2.3939844639623E-19
(PID.TID 0000.0001) %MON dynstat_wvel_sd              =   1.5089012586666E-15
(PID.TID 0000.0001) %MON dynstat_wvel_del2            =   1.4563361156032E-15
(PID.TID 0000.0001) %MON dynstat_theta_max            =   1.7844422529452E+00
(PID.TID 0000.0001) %MON dynstat_theta_min            =   9.9990169418748E-01
(PID.TID 0000.0001) %MON dynstat_theta_mean           =   1.0066888037826E+00
(PID.TID 0000.0001) %MON dynstat_theta_sd             =   5.5323698453568E-02
(PID.TID 0000.0001) %MON dynstat_theta_del2           =   3.6821264420203E-04
(PID.TID 0000.0001) %MON dynstat_salt_max             =   1.8150169979927E+00
(PID.TID 0000.0001) %MON dynstat_salt_min             =   9.9969516480240E-01
(PID.TID 0000.0001) %MON dynstat_salt_mean            =   1.0066901484881E+00
(PID.TID 0000.0001) %MON dynstat_salt_sd              =   5.6352605213516E-02
(PID.TID 0000.0001) %MON dynstat_salt_del2            =   3.8780946956939E-04
(PID.TID 0000.0001) %MON advcfl_uvel_max              =   1.0240615062181E+00
(PID.TID 0000.0001) %MON advcfl_vvel_max              =   1.0240615062181E+00
(PID.TID 0000.0001) %MON advcfl_wvel_max              =   4.8050241275036E-16
(PID.TID 0000.0001) %MON advcfl_W_hf_max              =   0.0000000000000E+00
(PID.TID 0000.0001) %MON pe_b_mean                    =   0.0000000000000E+00
(PID.TID 0000.0001) %MON ke_max                       =   7.4475958662786E+02
(PID.TID 0000.0001) %MON ke_mean                      =   4.9660795630338E+02
(PID.TID 0000.0001) %MON ke_vol                       =   5.0990436378172E+19
(PID.TID 0000.0001) %MON vort_r_min                   =  -1.2114474455529E-05
(PID.TID 0000.0001) %MON vort_r_max                   =   1.2114474455529E-05
(PID.TID 0000.0001) %MON vort_a_mean                  =   2.4513551737851E-21
(PID.TID 0000.0001) %MON vort_a_sd                    =   9.0967845104703E-05
(PID.TID 0000.0001) %MON vort_p_mean                  =   2.4513551737851E-21
(PID.TID 0000.0001) %MON vort_p_sd                    =   9.0967845104703E-05
(PID.TID 0000.0001) %MON surfExpan_theta_mean         =   2.3363105384562E-19
(PID.TID 0000.0001) %MON surfExpan_salt_mean          =   7.1487126225186E-19
(PID.TID 0000.0001) // =======================================================
(PID.TID 0000.0001) // End MONITOR dynamic field statistics
(PID.TID 0000.0001) // =======================================================
(PID.TID 0000.0001) // =======================================================
(PID.TID 0000.0001) // Begin MONITOR dynamic field statistics
(PID.TID 0000.0001) // =======================================================
(PID.TID 0000.0001) %MON time_tsnumber                =                   258
(PID.TID 0000.0001) %MON time_secondsf                =   9.2880000000000E+05
(PID.TID 0000.0001) %MON dynstat_eta_max              =   0.0000000000000E+00
(PID.TID 0000.0001) %MON dynstat_eta_min              =   0.0000000000000E+00
(PID.TID 0000.0001) %MON dynstat_eta_mean             =   0.0000000000000E+00
(PID.TID 0000.0001) %MON dynstat_eta_sd               =   0.0000000000000E+00
(PID.TID 0000.0001) %MON dynstat_eta_del2             =   0.0000000000000E+00
(PID.TID 0000.0001) %MON dynstat_uvel_max             =   3.8588909729197E+01
(PID.TID 0000.0001) %MON dynstat_uvel_min             =  -2.6640751857532E+01
(PID.TID 0000.0001) %MON dynstat_uvel_mean            =   1.1767801879505E+01
(PID.TID 0000.0001) %MON dynstat_uvel_sd              =   1.8925337749668E+01
(PID.TID 0000.0001) %MON dynstat_uvel_del2            =   3.3980387131857E-02
(PID.TID 0000.0001) %MON dynstat_vvel_max             =   3.8588909729197E+01
(PID.TID 0000.0001) %MON dynstat_vvel_min             =  -2.6640751857532E+01
(PID.TID 0000.0001) %MON dynstat_vvel_mean            =   1.1767801879505E+01
(PID.TID 0000.0001) %MON dynstat_vvel_sd              =   1.8925337749668E+01
(PID.TID 0000.0001) %MON dynstat_vvel_del2            =   3.3980387131857E-02
(PID.TID 0000.0001) %MON dynstat_wvel_max             =   6.6736446215327E-15
(PID.TID 0000.0001) %MON dynstat_wvel_min             =  -6.6736446215327E-15
(PID.TID 0000.0001) %MON dynstat_wvel_mean            =   2.3939844639623E-19
(PID.TID 0000.0001) %MON dynstat_wvel_sd              =   1.5089012586666E-15
(PID.TID 0000.0001) %MON dynstat_wvel_del2            =   1.4563361156032E-15
(PID.TID 0000.0001) %MON dynstat_theta_max            =   1.7843039154253E+00
(PID.TID 0000.0001) %MON dynstat_theta_min            =   9.9990504805632E-01
(PID.TID 0000.0001) %MON dynstat_theta_mean           =   1.0066888037826E+00
(PID.TID 0000.0001) %MON dynstat_theta_sd             =   5.5234077742766E-02
(PID.TID 0000.0001) %MON dynstat_theta_del2           =   3.6597731929274E-04
(PID.TID 0000.0001) %MON dynstat_salt_max             =   1.8157400131087E+00
(PID.TID 0000.0001) %MON dynstat_salt_min             =   9.9970923795985E-01
(PID.TID 0000.0001) %MON dynstat_salt_mean            =   1.0066901484881E+00
(PID.TID 0000.0001) %MON dynstat_salt_sd              =   5.6271686426871E-02
(PID.TID 0000.0001) %MON dynstat_salt_del2            =   3.8276544822599E-04
(PID.TID 0000.0001) %MON advcfl_uvel_max              =   1.0240615062181E+00
(PID.TID 0000.0001) %MON advcfl_vvel_max              =   1.0240615062181E+00
(PID.TID 0000.0001) %MON advcfl_wvel_max              =   4.8050241275036E-16
(PID.TID 0000.0001) %MON advcfl_W_hf_max              =   0.0000000000000E+00
(PID.TID 0000.0001) %MON pe_b_mean                    =   0.0000000000000E+00
(PID.TID 0000.0001) %MON ke_max                       =   7.4475958662786E+02
(PID.TID 0000.0001) %MON ke_mean                      =   4.9660795630338E+02
(PID.TID 0000.0001) %MON ke_vol                       =   5.0990436378172E+19
(PID.TID 0000.0001) %MON vort_r_min                   =  -1.2114474455529E-05
(PID.TID 0000.0001) %MON vort_r_max                   =   1.2114474455529E-05
(PID.TID 0000.0001) %MON vort_a_mean                  =   2.4513551737851E-21
(PID.TID 0000.0001) %MON vort_a_sd                    =   9.0967845104703E-05
(PID.TID 0000.0001) %MON vort_p_mean                  =   2.4513551737851E-21
(PID.TID 0000.0001) %MON vort_p_sd                    =   9.0967845104703E-05
(PID.TID 0000.0001) %MON surfExpan_theta_mean         =   5.5351442052912E-19
(PID.TID 0000.0001) %MON surfExpan_salt_mean          =   7.0984098089144E-19
(PID.TID 0000.0001) // =======================================================
(PID.TID 0000.0001) // End MONITOR dynamic field statistics
(PID.TID 0000.0001) // =======================================================
(PID.TID 0000.0001) // =======================================================
(PID.TID 0000.0001) // Begin MONITOR dynamic field statistics
(PID.TID 0000.0001) // =======================================================
(PID.TID 0000.0001) %MON time_tsnumber                =                   264
(PID.TID 0000.0001) %MON time_secondsf                =   9.5040000000000E+05
(PID.TID 0000.0001) %MON dynstat_eta_max              =   0.0000000000000E+00
(PID.TID 0000.0001) %MON dynstat_eta_min              =   0.0000000000000E+00
(PID.TID 0000.0001) %MON dynstat_eta_mean             =   0.0000000000000E+00
(PID.TID 0000.0001) %MON dynstat_eta_sd               =   0.0000000000000E+00
(PID.TID 0000.0001) %MON dynstat_eta_del2             =   0.0000000000000E+00
(PID.TID 0000.0001) %MON dynstat_uvel_max             =   3.8588909729197E+01
(PID.TID 0000.0001) %MON dynstat_uvel_min             =  -2.6640751857532E+01
(PID.TID 0000.0001) %MON dynstat_uvel_mean            =   1.1767801879505E+01
(PID.TID 0000.0001) %MON dynstat_uvel_sd              =   1.8925337749668E+01
(PID.TID 0000.0001) %MON dynstat_uvel_del2            =   3.3980387131857E-02
(PID.TID 0000.0001) %MON dynstat_vvel_max             =   3.8588909729197E+01
(PID.TID 0000.0001) %MON dynstat_vvel_min             =  -2.6640751857532E+01
(PID.TID 0000.0001) %MON dynstat_vvel_mean            =   1.1767801879505E+01
(PID.TID 0000.0001) %MON dynstat_vvel_sd              =   1.8925337749668E+01
(PID.TID 0000.0001) %MON dynstat_vvel_del2            =   3.3980387131857E-02
(PID.TID 0000.0001) %MON dynstat_wvel_max             =   6.6736446215327E-15
(PID.TID 0000.0001) %MON dynstat_wvel_min             =  -6.6736446215327E-15
(PID.TID 0000.0001) %MON dynstat_wvel_mean            =   2.3939844639623E-19
(PID.TID 0000.0001) %MON dynstat_wvel_sd              =   1.5089012586666E-15
(PID.TID 0000.0001) %MON dynstat_wvel_del2            =   1.4563361156032E-15
(PID.TID 0000.0001) %MON dynstat_theta_max            =   1.7808895231087E+00
(PID.TID 0000.0001) %MON dynstat_theta_min            =   9.9991041505452E-01
(PID.TID 0000.0001) %MON dynstat_theta_mean           =   1.0066888037826E+00
(PID.TID 0000.0001) %MON dynstat_theta_sd             =   5.5143252077504E-02
(PID.TID 0000.0001) %MON dynstat_theta_del2           =   3.6587035406220E-04
(PID.TID 0000.0001) %MON dynstat_salt_max             =   1.8161691439407E+00
(PID.TID 0000.0001) %MON dynstat_salt_min             =   9.9972437091876E-01
(PID.TID 0000.0001) %MON dynstat_salt_mean            =   1.0066901484881E+00
(PID.TID 0000.0001) %MON dynstat_salt_sd              =   5.6168340931793E-02
(PID.TID 0000.0001) %MON dynstat_salt_del2            =   3.9057547484009E-04
(PID.TID 0000.0001) %MON advcfl_uvel_max              =   1.0240615062181E+00
(PID.TID 0000.0001) %MON advcfl_vvel_max              =   1.0240615062181E+00
(PID.TID 0000.0001) %MON advcfl_wvel_max              =   4.8050241275036E-16
(PID.TID 0000.0001) %MON advcfl_W_hf_max              =   0.0000000000000E+00
(PID.TID 0000.0001) %MON pe_b_mean                    =   0.0000000000000E+00
(PID.TID 0000.0001) %MON ke_max                       =   7.4475958662786E+02
(PID.TID 0000.0001) %MON ke_mean                      =   4.9660795630338E+02
(PID.TID 0000.0001) %MON ke_vol                       =   5.0990436378172E+19
(PID.TID 0000.0001) %MON vort_r_min                   =  -1.2114474455529E-05
(PID.TID 0000.0001) %MON vort_r_max                   =   1.2114474455529E-05
(PID.TID 0000.0001) %MON vort_a_mean                  =   2.4513551737851E-21
(PID.TID 0000.0001) %MON vort_a_sd                    =   9.0967845104703E-05
(PID.TID 0000.0001) %MON vort_p_mean                  =   2.4513551737851E-21
(PID.TID 0000.0001) %MON vort_p_sd                    =   9.0967845104703E-05
(PID.TID 0000.0001) %MON surfExpan_theta_mean         =   3.9542807095379E-19
(PID.TID 0000.0001) %MON surfExpan_salt_mean          =   4.5902530709770E-19
(PID.TID 0000.0001) // =======================================================
(PID.TID 0000.0001) // End MONITOR dynamic field statistics
(PID.TID 0000.0001) // =======================================================
(PID.TID 0000.0001) // =======================================================
(PID.TID 0000.0001) // Begin MONITOR dynamic field statistics
(PID.TID 0000.0001) // =======================================================
(PID.TID 0000.0001) %MON time_tsnumber                =                   270
(PID.TID 0000.0001) %MON time_secondsf                =   9.7200000000000E+05
(PID.TID 0000.0001) %MON dynstat_eta_max              =   0.0000000000000E+00
(PID.TID 0000.0001) %MON dynstat_eta_min              =   0.0000000000000E+00
(PID.TID 0000.0001) %MON dynstat_eta_mean             =   0.0000000000000E+00
(PID.TID 0000.0001) %MON dynstat_eta_sd               =   0.0000000000000E+00
(PID.TID 0000.0001) %MON dynstat_eta_del2             =   0.0000000000000E+00
(PID.TID 0000.0001) %MON dynstat_uvel_max             =   3.8588909729197E+01
(PID.TID 0000.0001) %MON dynstat_uvel_min             =  -2.6640751857532E+01
(PID.TID 0000.0001) %MON dynstat_uvel_mean            =   1.1767801879505E+01
(PID.TID 0000.0001) %MON dynstat_uvel_sd              =   1.8925337749668E+01
(PID.TID 0000.0001) %MON dynstat_uvel_del2            =   3.3980387131857E-02
(PID.TID 0000.0001) %MON dynstat_vvel_max             =   3.8588909729197E+01
(PID.TID 0000.0001) %MON dynstat_vvel_min             =  -2.6640751857532E+01
(PID.TID 0000.0001) %MON dynstat_vvel_mean            =   1.1767801879505E+01
(PID.TID 0000.0001) %MON dynstat_vvel_sd              =   1.8925337749668E+01
(PID.TID 0000.0001) %MON dynstat_vvel_del2            =   3.3980387131857E-02
(PID.TID 0000.0001) %MON dynstat_wvel_max             =   6.6736446215327E-15
(PID.TID 0000.0001) %MON dynstat_wvel_min             =  -6.6736446215327E-15
(PID.TID 0000.0001) %MON dynstat_wvel_mean            =   2.3939844639623E-19
(PID.TID 0000.0001) %MON dynstat_wvel_sd              =   1.5089012586666E-15
(PID.TID 0000.0001) %MON dynstat_wvel_del2            =   1.4563361156032E-15
(PID.TID 0000.0001) %MON dynstat_theta_max            =   1.7794628645382E+00
(PID.TID 0000.0001) %MON dynstat_theta_min            =   9.9991084019296E-01
(PID.TID 0000.0001) %MON dynstat_theta_mean           =   1.0066888037826E+00
(PID.TID 0000.0001) %MON dynstat_theta_sd             =   5.5049588684077E-02
(PID.TID 0000.0001) %MON dynstat_theta_del2           =   3.6599673744144E-04
(PID.TID 0000.0001) %MON dynstat_salt_max             =   1.8112302758138E+00
(PID.TID 0000.0001) %MON dynstat_salt_min             =   9.9973672748206E-01
(PID.TID 0000.0001) %MON dynstat_salt_mean            =   1.0066901484881E+00
(PID.TID 0000.0001) %MON dynstat_salt_sd              =   5.6070553529947E-02
(PID.TID 0000.0001) %MON dynstat_salt_del2            =   3.9039932713776E-04
(PID.TID 0000.0001) %MON advcfl_uvel_max              =   1.0240615062181E+00
(PID.TID 0000.0001) %MON advcfl_vvel_max              =   1.0240615062181E+00
(PID.TID 0000.0001) %MON advcfl_wvel_max              =   4.8050241275036E-16
(PID.TID 0000.0001) %MON advcfl_W_hf_max              =   0.0000000000000E+00
(PID.TID 0000.0001) %MON pe_b_mean                    =   0.0000000000000E+00
(PID.TID 0000.0001) %MON ke_max                       =   7.4475958662786E+02
(PID.TID 0000.0001) %MON ke_mean                      =   4.9660795630338E+02
(PID.TID 0000.0001) %MON ke_vol                       =   5.0990436378172E+19
(PID.TID 0000.0001) %MON vort_r_min                   =  -1.2114474455529E-05
(PID.TID 0000.0001) %MON vort_r_max                   =   1.2114474455529E-05
(PID.TID 0000.0001) %MON vort_a_mean                  =   2.4513551737851E-21
(PID.TID 0000.0001) %MON vort_a_sd                    =   9.0967845104703E-05
(PID.TID 0000.0001) %MON vort_p_mean                  =   2.4513551737851E-21
(PID.TID 0000.0001) %MON vort_p_sd                    =   9.0967845104703E-05
(PID.TID 0000.0001) %MON surfExpan_theta_mean         =   1.3216979699753E-19
(PID.TID 0000.0001) %MON surfExpan_salt_mean          =   1.8983315381301E-19
(PID.TID 0000.0001) // =======================================================
(PID.TID 0000.0001) // End MONITOR dynamic field statistics
(PID.TID 0000.0001) // =======================================================
(PID.TID 0000.0001) // =======================================================
(PID.TID 0000.0001) // Begin MONITOR dynamic field statistics
(PID.TID 0000.0001) // =======================================================
(PID.TID 0000.0001) %MON time_tsnumber                =                   276
(PID.TID 0000.0001) %MON time_secondsf                =   9.9360000000000E+05
(PID.TID 0000.0001) %MON dynstat_eta_max              =   0.0000000000000E+00
(PID.TID 0000.0001) %MON dynstat_eta_min              =   0.0000000000000E+00
(PID.TID 0000.0001) %MON dynstat_eta_mean             =   0.0000000000000E+00
(PID.TID 0000.0001) %MON dynstat_eta_sd               =   0.0000000000000E+00
(PID.TID 0000.0001) %MON dynstat_eta_del2             =   0.0000000000000E+00
(PID.TID 0000.0001) %MON dynstat_uvel_max             =   3.8588909729197E+01
(PID.TID 0000.0001) %MON dynstat_uvel_min             =  -2.6640751857532E+01
(PID.TID 0000.0001) %MON dynstat_uvel_mean            =   1.1767801879505E+01
(PID.TID 0000.0001) %MON dynstat_uvel_sd              =   1.8925337749668E+01
(PID.TID 0000.0001) %MON dynstat_uvel_del2            =   3.3980387131857E-02
(PID.TID 0000.0001) %MON dynstat_vvel_max             =   3.8588909729197E+01
(PID.TID 0000.0001) %MON dynstat_vvel_min             =  -2.6640751857532E+01
(PID.TID 0000.0001) %MON dynstat_vvel_mean            =   1.1767801879505E+01
(PID.TID 0000.0001) %MON dynstat_vvel_sd              =   1.8925337749668E+01
(PID.TID 0000.0001) %MON dynstat_vvel_del2            =   3.3980387131857E-02
(PID.TID 0000.0001) %MON dynstat_wvel_max             =   6.6736446215327E-15
(PID.TID 0000.0001) %MON dynstat_wvel_min             =  -6.6736446215327E-15
(PID.TID 0000.0001) %MON dynstat_wvel_mean            =   2.3939844639623E-19
(PID.TID 0000.0001) %MON dynstat_wvel_sd              =   1.5089012586666E-15
(PID.TID 0000.0001) %MON dynstat_wvel_del2            =   1.4563361156032E-15
(PID.TID 0000.0001) %MON dynstat_theta_max            =   1.7753617903258E+00
(PID.TID 0000.0001) %MON dynstat_theta_min            =   9.9990282925744E-01
(PID.TID 0000.0001) %MON dynstat_theta_mean           =   1.0066888037826E+00
(PID.TID 0000.0001) %MON dynstat_theta_sd             =   5.4951397668589E-02
(PID.TID 0000.0001) %MON dynstat_theta_del2           =   3.6509673229029E-04
(PID.TID 0000.0001) %MON dynstat_salt_max             =   1.8091337182075E+00
(PID.TID 0000.0001) %MON dynstat_salt_min             =   9.9960721975177E-01
(PID.TID 0000.0001) %MON dynstat_salt_mean            =   1.0066901484881E+00
(PID.TID 0000.0001) %MON dynstat_salt_sd              =   5.5969616959539E-02
(PID.TID 0000.0001) %MON dynstat_salt_del2            =   3.7711127903189E-04
(PID.TID 0000.0001) %MON advcfl_uvel_max              =   1.0240615062181E+00
(PID.TID 0000.0001) %MON advcfl_vvel_max              =   1.0240615062181E+00
(PID.TID 0000.0001) %MON advcfl_wvel_max              =   4.8050241275036E-16
(PID.TID 0000.0001) %MON advcfl_W_hf_max              =   0.0000000000000E+00
(PID.TID 0000.0001) %MON pe_b_mean                    =   0.0000000000000E+00
(PID.TID 0000.0001) %MON ke_max                       =   7.4475958662786E+02
(PID.TID 0000.0001) %MON ke_mean                      =   4.9660795630338E+02
(PID.TID 0000.0001) %MON ke_vol                       =   5.0990436378172E+19
(PID.TID 0000.0001) %MON vort_r_min                   =  -1.2114474455529E-05
(PID.TID 0000.0001) %MON vort_r_max                   =   1.2114474455529E-05
(PID.TID 0000.0001) %MON vort_a_mean                  =   2.4513551737851E-21
(PID.TID 0000.0001) %MON vort_a_sd                    =   9.0967845104703E-05
(PID.TID 0000.0001) %MON vort_p_mean                  =   2.4513551737851E-21
(PID.TID 0000.0001) %MON vort_p_sd                    =   9.0967845104703E-05
(PID.TID 0000.0001) %MON surfExpan_theta_mean         =   1.8207963928409E-19
(PID.TID 0000.0001) %MON surfExpan_salt_mean          =   2.1715678412886E-19
(PID.TID 0000.0001) // =======================================================
(PID.TID 0000.0001) // End MONITOR dynamic field statistics
(PID.TID 0000.0001) // =======================================================
(PID.TID 0000.0001) // =======================================================
(PID.TID 0000.0001) // Begin MONITOR dynamic field statistics
(PID.TID 0000.0001) // =======================================================
(PID.TID 0000.0001) %MON time_tsnumber                =                   282
(PID.TID 0000.0001) %MON time_secondsf                =   1.0152000000000E+06
(PID.TID 0000.0001) %MON dynstat_eta_max              =   0.0000000000000E+00
(PID.TID 0000.0001) %MON dynstat_eta_min              =   0.0000000000000E+00
(PID.TID 0000.0001) %MON dynstat_eta_mean             =   0.0000000000000E+00
(PID.TID 0000.0001) %MON dynstat_eta_sd               =   0.0000000000000E+00
(PID.TID 0000.0001) %MON dynstat_eta_del2             =   0.0000000000000E+00
(PID.TID 0000.0001) %MON dynstat_uvel_max             =   3.8588909729197E+01
(PID.TID 0000.0001) %MON dynstat_uvel_min             =  -2.6640751857532E+01
(PID.TID 0000.0001) %MON dynstat_uvel_mean            =   1.1767801879505E+01
(PID.TID 0000.0001) %MON dynstat_uvel_sd              =   1.8925337749668E+01
(PID.TID 0000.0001) %MON dynstat_uvel_del2            =   3.3980387131857E-02
(PID.TID 0000.0001) %MON dynstat_vvel_max             =   3.8588909729197E+01
(PID.TID 0000.0001) %MON dynstat_vvel_min             =  -2.6640751857532E+01
(PID.TID 0000.0001) %MON dynstat_vvel_mean            =   1.1767801879505E+01
(PID.TID 0000.0001) %MON dynstat_vvel_sd              =   1.8925337749668E+01
(PID.TID 0000.0001) %MON dynstat_vvel_del2            =   3.3980387131857E-02
(PID.TID 0000.0001) %MON dynstat_wvel_max             =   6.6736446215327E-15
(PID.TID 0000.0001) %MON dynstat_wvel_min             =  -6.6736446215327E-15
(PID.TID 0000.0001) %MON dynstat_wvel_mean            =   2.3939844639623E-19
(PID.TID 0000.0001) %MON dynstat_wvel_sd              =   1.5089012586666E-15
(PID.TID 0000.0001) %MON dynstat_wvel_del2            =   1.4563361156032E-15
(PID.TID 0000.0001) %MON dynstat_theta_max            =   1.7713459341922E+00
(PID.TID 0000.0001) %MON dynstat_theta_min            =   9.9986991445775E-01
(PID.TID 0000.0001) %MON dynstat_theta_mean           =   1.0066888037826E+00
(PID.TID 0000.0001) %MON dynstat_theta_sd             =   5.4852737133911E-02
(PID.TID 0000.0001) %MON dynstat_theta_del2           =   3.6504511254807E-04
(PID.TID 0000.0001) %MON dynstat_salt_max             =   1.8039856879618E+00
(PID.TID 0000.0001) %MON dynstat_salt_min             =   9.9937656014064E-01
(PID.TID 0000.0001) %MON dynstat_salt_mean            =   1.0066901484881E+00
(PID.TID 0000.0001) %MON dynstat_salt_sd              =   5.5866736088633E-02
(PID.TID 0000.0001) %MON dynstat_salt_del2            =   3.7280769368457E-04
(PID.TID 0000.0001) %MON advcfl_uvel_max              =   1.0240615062181E+00
(PID.TID 0000.0001) %MON advcfl_vvel_max              =   1.0240615062181E+00
(PID.TID 0000.0001) %MON advcfl_wvel_max              =   4.8050241275036E-16
(PID.TID 0000.0001) %MON advcfl_W_hf_max              =   0.0000000000000E+00
(PID.TID 0000.0001) %MON pe_b_mean                    =   0.0000000000000E+00
(PID.TID 0000.0001) %MON ke_max                       =   7.4475958662786E+02
(PID.TID 0000.0001) %MON ke_mean                      =   4.9660795630338E+02
(PID.TID 0000.0001) %MON ke_vol                       =   5.0990436378172E+19
(PID.TID 0000.0001) %MON vort_r_min                   =  -1.2114474455529E-05
(PID.TID 0000.0001) %MON vort_r_max                   =   1.2114474455529E-05
(PID.TID 0000.0001) %MON vort_a_mean                  =   2.4513551737851E-21
(PID.TID 0000.0001) %MON vort_a_sd                    =   9.0967845104703E-05
(PID.TID 0000.0001) %MON vort_p_mean                  =   2.4513551737851E-21
(PID.TID 0000.0001) %MON vort_p_sd                    =   9.0967845104703E-05
(PID.TID 0000.0001) %MON surfExpan_theta_mean         =   1.7234801072660E-19
(PID.TID 0000.0001) %MON surfExpan_salt_mean          =   2.7211123006442E-19
(PID.TID 0000.0001) // =======================================================
(PID.TID 0000.0001) // End MONITOR dynamic field statistics
(PID.TID 0000.0001) // =======================================================
(PID.TID 0000.0001) // =======================================================
(PID.TID 0000.0001) // Begin MONITOR dynamic field statistics
(PID.TID 0000.0001) // =======================================================
(PID.TID 0000.0001) %MON time_tsnumber                =                   288
(PID.TID 0000.0001) %MON time_secondsf                =   1.0368000000000E+06
(PID.TID 0000.0001) %MON dynstat_eta_max              =   0.0000000000000E+00
(PID.TID 0000.0001) %MON dynstat_eta_min              =   0.0000000000000E+00
(PID.TID 0000.0001) %MON dynstat_eta_mean             =   0.0000000000000E+00
(PID.TID 0000.0001) %MON dynstat_eta_sd               =   0.0000000000000E+00
(PID.TID 0000.0001) %MON dynstat_eta_del2             =   0.0000000000000E+00
(PID.TID 0000.0001) %MON dynstat_uvel_max             =   3.8588909729197E+01
(PID.TID 0000.0001) %MON dynstat_uvel_min             =  -2.6640751857532E+01
(PID.TID 0000.0001) %MON dynstat_uvel_mean            =   1.1767801879505E+01
(PID.TID 0000.0001) %MON dynstat_uvel_sd              =   1.8925337749668E+01
(PID.TID 0000.0001) %MON dynstat_uvel_del2            =   3.3980387131857E-02
(PID.TID 0000.0001) %MON dynstat_vvel_max             =   3.8588909729197E+01
(PID.TID 0000.0001) %MON dynstat_vvel_min             =  -2.6640751857532E+01
(PID.TID 0000.0001) %MON dynstat_vvel_mean            =   1.1767801879505E+01
(PID.TID 0000.0001) %MON dynstat_vvel_sd              =   1.8925337749668E+01
(PID.TID 0000.0001) %MON dynstat_vvel_del2            =   3.3980387131857E-02
(PID.TID 0000.0001) %MON dynstat_wvel_max             =   6.6736446215327E-15
(PID.TID 0000.0001) %MON dynstat_wvel_min             =  -6.6736446215327E-15
(PID.TID 0000.0001) %MON dynstat_wvel_mean            =   2.3939844639623E-19
(PID.TID 0000.0001) %MON dynstat_wvel_sd              =   1.5089012586666E-15
(PID.TID 0000.0001) %MON dynstat_wvel_del2            =   1.4563361156032E-15
(PID.TID 0000.0001) %MON dynstat_theta_max            =   1.7678393525011E+00
(PID.TID 0000.0001) %MON dynstat_theta_min            =   9.9983704962079E-01
(PID.TID 0000.0001) %MON dynstat_theta_mean           =   1.0066888037826E+00
(PID.TID 0000.0001) %MON dynstat_theta_sd             =   5.4755884440963E-02
(PID.TID 0000.0001) %MON dynstat_theta_del2           =   3.6214754645117E-04
(PID.TID 0000.0001) %MON dynstat_salt_max             =   1.7989549643960E+00
(PID.TID 0000.0001) %MON dynstat_salt_min             =   9.9941156951977E-01
(PID.TID 0000.0001) %MON dynstat_salt_mean            =   1.0066901484881E+00
(PID.TID 0000.0001) %MON dynstat_salt_sd              =   5.5765323678511E-02
(PID.TID 0000.0001) %MON dynstat_salt_del2            =   3.7196781530407E-04
(PID.TID 0000.0001) %MON advcfl_uvel_max              =   1.0240615062181E+00
(PID.TID 0000.0001) %MON advcfl_vvel_max              =   1.0240615062181E+00
(PID.TID 0000.0001) %MON advcfl_wvel_max              =   4.8050241275036E-16
(PID.TID 0000.0001) %MON advcfl_W_hf_max              =   0.0000000000000E+00
(PID.TID 0000.0001) %MON pe_b_mean                    =   0.0000000000000E+00
(PID.TID 0000.0001) %MON ke_max                       =   7.4475958662786E+02
(PID.TID 0000.0001) %MON ke_mean                      =   4.9660795630338E+02
(PID.TID 0000.0001) %MON ke_vol                       =   5.0990436378172E+19
(PID.TID 0000.0001) %MON vort_r_min                   =  -1.2114474455529E-05
(PID.TID 0000.0001) %MON vort_r_max                   =   1.2114474455529E-05
(PID.TID 0000.0001) %MON vort_a_mean                  =   2.4513551737851E-21
(PID.TID 0000.0001) %MON vort_a_sd                    =   9.0967845104703E-05
(PID.TID 0000.0001) %MON vort_p_mean                  =   2.4513551737851E-21
(PID.TID 0000.0001) %MON vort_p_sd                    =   9.0967845104703E-05
(PID.TID 0000.0001) %MON surfExpan_theta_mean         =   2.4375501515541E-19
(PID.TID 0000.0001) %MON surfExpan_salt_mean          =   3.0662866641152E-19
(PID.TID 0000.0001) // =======================================================
(PID.TID 0000.0001) // End MONITOR dynamic field statistics
(PID.TID 0000.0001) // =======================================================
(PID.TID 0000.0001) %CHECKPOINT       288 ckptA
(PID.TID 0000.0001)   Seconds in section "ALL                    [THE_MODEL_MAIN]":
(PID.TID 0000.0001)           User time:  12.1899996
(PID.TID 0000.0001)         System time:  0.180000007
(PID.TID 0000.0001)     Wall clock time:  12.8548071
(PID.TID 0000.0001)          No. starts: 1
(PID.TID 0000.0001)           No. stops: 1
(PID.TID 0000.0001)   Seconds in section "INITIALISE_FIXED       [THE_MODEL_MAIN]":
(PID.TID 0000.0001)           User time:  0.150000006
(PID.TID 0000.0001)         System time:  0.0399999991
(PID.TID 0000.0001)     Wall clock time:  0.296690941
(PID.TID 0000.0001)          No. starts: 1
(PID.TID 0000.0001)           No. stops: 1
(PID.TID 0000.0001)   Seconds in section "THE_MAIN_LOOP          [THE_MODEL_MAIN]":
(PID.TID 0000.0001)           User time:  11.9999996
(PID.TID 0000.0001)         System time:  0.140000008
(PID.TID 0000.0001)     Wall clock time:  12.5150769
(PID.TID 0000.0001)          No. starts: 1
(PID.TID 0000.0001)           No. stops: 1
(PID.TID 0000.0001)   Seconds in section "INITIALISE_VARIA    [THE_MAIN_LOOP]":
(PID.TID 0000.0001)           User time:  0.
(PID.TID 0000.0001)         System time:  0.0100000016
(PID.TID 0000.0001)     Wall clock time:  0.0273728371
(PID.TID 0000.0001)          No. starts: 1
(PID.TID 0000.0001)           No. stops: 1
(PID.TID 0000.0001)   Seconds in section "MONITOR             [THE_MAIN_LOOP]":
(PID.TID 0000.0001)           User time:  0.0199999958
(PID.TID 0000.0001)         System time:  0.
(PID.TID 0000.0001)     Wall clock time:  0.0152590275
(PID.TID 0000.0001)          No. starts: 1
(PID.TID 0000.0001)           No. stops: 1
(PID.TID 0000.0001)   Seconds in section "DO_THE_MODEL_IO     [THE_MAIN_LOOP]":
(PID.TID 0000.0001)           User time:  0.0199999958
(PID.TID 0000.0001)         System time:  0.
(PID.TID 0000.0001)     Wall clock time:  0.0277118683
(PID.TID 0000.0001)          No. starts: 1
(PID.TID 0000.0001)           No. stops: 1
(PID.TID 0000.0001)   Seconds in section "MAIN LOOP           [THE_MAIN_LOOP]":
(PID.TID 0000.0001)           User time:  11.9599996
(PID.TID 0000.0001)         System time:  0.130000006
(PID.TID 0000.0001)     Wall clock time:  12.4445801
(PID.TID 0000.0001)          No. starts: 1
(PID.TID 0000.0001)           No. stops: 1
(PID.TID 0000.0001)   Seconds in section "FORWARD_STEP        [THE_MAIN_LOOP]":
(PID.TID 0000.0001)           User time:  11.9399992
(PID.TID 0000.0001)         System time:  0.130000006
(PID.TID 0000.0001)     Wall clock time:  12.4361839
(PID.TID 0000.0001)          No. starts: 288
(PID.TID 0000.0001)           No. stops: 288
(PID.TID 0000.0001)   Seconds in section "EXTERNAL_FIELDS_LOAD[FORWARD_STEP]":
(PID.TID 0000.0001)           User time:  0.0100002289
(PID.TID 0000.0001)         System time:  0.
(PID.TID 0000.0001)     Wall clock time:  0.00829124451
(PID.TID 0000.0001)          No. starts: 288
(PID.TID 0000.0001)           No. stops: 288
(PID.TID 0000.0001)   Seconds in section "DO_ATMOSPHERIC_PHYS [FORWARD_STEP]":
(PID.TID 0000.0001)           User time:  0.0199999809
(PID.TID 0000.0001)         System time:  0.
(PID.TID 0000.0001)     Wall clock time:  0.00829052925
(PID.TID 0000.0001)          No. starts: 288
(PID.TID 0000.0001)           No. stops: 288
(PID.TID 0000.0001)   Seconds in section "DO_OCEANIC_PHYS     [FORWARD_STEP]":
(PID.TID 0000.0001)           User time:  0.670004725
(PID.TID 0000.0001)         System time:  0.
(PID.TID 0000.0001)     Wall clock time:  0.61660552
(PID.TID 0000.0001)          No. starts: 288
(PID.TID 0000.0001)           No. stops: 288
(PID.TID 0000.0001)   Seconds in section "THERMODYNAMICS      [FORWARD_STEP]":
(PID.TID 0000.0001)           User time:  9.63999031
(PID.TID 0000.0001)         System time:  0.
(PID.TID 0000.0001)     Wall clock time:  9.6586678
(PID.TID 0000.0001)          No. starts: 288
(PID.TID 0000.0001)           No. stops: 288
(PID.TID 0000.0001)   Seconds in section "UV_CORRECTION_STEP  [FORWARD_STEP]":
(PID.TID 0000.0001)           User time:  0.469999328
(PID.TID 0000.0001)         System time:  0.
(PID.TID 0000.0001)     Wall clock time:  0.494744539
(PID.TID 0000.0001)          No. starts: 288
(PID.TID 0000.0001)           No. stops: 288
(PID.TID 0000.0001)   Seconds in section "TS_CORRECTION_STEP  [FORWARD_STEP]":
(PID.TID 0000.0001)           User time:  0.100001335
(PID.TID 0000.0001)         System time:  0.
(PID.TID 0000.0001)     Wall clock time:  0.1332407
(PID.TID 0000.0001)          No. starts: 288
(PID.TID 0000.0001)           No. stops: 288
(PID.TID 0000.0001)   Seconds in section "BLOCKING_EXCHANGES  [FORWARD_STEP]":
(PID.TID 0000.0001)           User time:  0.149999648
(PID.TID 0000.0001)         System time:  0.
(PID.TID 0000.0001)     Wall clock time:  0.180089474
(PID.TID 0000.0001)          No. starts: 288
(PID.TID 0000.0001)           No. stops: 288
(PID.TID 0000.0001)   Seconds in section "DO_STATEVARS_DIAGS  [FORWARD_STEP]":
(PID.TID 0000.0001)           User time:  0.0200002193
(PID.TID 0000.0001)         System time:  0.
(PID.TID 0000.0001)     Wall clock time:  0.00839328766
(PID.TID 0000.0001)          No. starts: 288
(PID.TID 0000.0001)           No. stops: 288
(PID.TID 0000.0001)   Seconds in section "MONITOR             [FORWARD_STEP]":
(PID.TID 0000.0001)           User time:  0.720002204
(PID.TID 0000.0001)         System time:  0.00999999791
(PID.TID 0000.0001)     Wall clock time:  0.736334085
(PID.TID 0000.0001)          No. starts: 288
(PID.TID 0000.0001)           No. stops: 288
(PID.TID 0000.0001)   Seconds in section "DO_THE_MODEL_IO     [FORWARD_STEP]":
(PID.TID 0000.0001)           User time:  0.110001206
(PID.TID 0000.0001)         System time:  0.110000003
(PID.TID 0000.0001)     Wall clock time:  0.48189497
(PID.TID 0000.0001)          No. starts: 288
(PID.TID 0000.0001)           No. stops: 288
(PID.TID 0000.0001)   Seconds in section "WRITE_CHECKPOINT    [FORWARD_STEP]":
(PID.TID 0000.0001)           User time:  0.0100002289
(PID.TID 0000.0001)         System time:  0.
(PID.TID 0000.0001)     Wall clock time:  0.00845932961
(PID.TID 0000.0001)          No. starts: 288
(PID.TID 0000.0001)           No. stops: 288
(PID.TID 0000.0001)   Seconds in section "WRITE_CHECKPOINT       [THE_MODEL_MAIN]":
(PID.TID 0000.0001)           User time:  0.0399999619
(PID.TID 0000.0001)         System time:  0.
(PID.TID 0000.0001)     Wall clock time:  0.0429019928
(PID.TID 0000.0001)          No. starts: 1
(PID.TID 0000.0001)           No. stops: 1
(PID.TID 0000.0001) // ======================================================
(PID.TID 0000.0001) // Tile <-> Tile communication statistics
(PID.TID 0000.0001) // ======================================================
(PID.TID 0000.0001) // o Tile number: 000001
(PID.TID 0000.0001) //         No. X exchanges =              0
(PID.TID 0000.0001) //            Max. X spins =              0
(PID.TID 0000.0001) //            Min. X spins =     1000000000
(PID.TID 0000.0001) //          Total. X spins =              0
(PID.TID 0000.0001) //            Avg. X spins =       0.00E+00
(PID.TID 0000.0001) //         No. Y exchanges =              0
(PID.TID 0000.0001) //            Max. Y spins =              0
(PID.TID 0000.0001) //            Min. Y spins =     1000000000
(PID.TID 0000.0001) //          Total. Y spins =              0
(PID.TID 0000.0001) //            Avg. Y spins =       0.00E+00
(PID.TID 0000.0001) // o Tile number: 000002
(PID.TID 0000.0001) //         No. X exchanges =              0
(PID.TID 0000.0001) //            Max. X spins =              0
(PID.TID 0000.0001) //            Min. X spins =     1000000000
(PID.TID 0000.0001) //          Total. X spins =              0
(PID.TID 0000.0001) //            Avg. X spins =       0.00E+00
(PID.TID 0000.0001) //         No. Y exchanges =              0
(PID.TID 0000.0001) //            Max. Y spins =              0
(PID.TID 0000.0001) //            Min. Y spins =     1000000000
(PID.TID 0000.0001) //          Total. Y spins =              0
(PID.TID 0000.0001) //            Avg. Y spins =       0.00E+00
(PID.TID 0000.0001) // o Tile number: 000003
(PID.TID 0000.0001) //         No. X exchanges =              0
(PID.TID 0000.0001) //            Max. X spins =              0
(PID.TID 0000.0001) //            Min. X spins =     1000000000
(PID.TID 0000.0001) //          Total. X spins =              0
(PID.TID 0000.0001) //            Avg. X spins =       0.00E+00
(PID.TID 0000.0001) //         No. Y exchanges =              0
(PID.TID 0000.0001) //            Max. Y spins =              0
(PID.TID 0000.0001) //            Min. Y spins =     1000000000
(PID.TID 0000.0001) //          Total. Y spins =              0
(PID.TID 0000.0001) //            Avg. Y spins =       0.00E+00
(PID.TID 0000.0001) // o Tile number: 000004
(PID.TID 0000.0001) //         No. X exchanges =              0
(PID.TID 0000.0001) //            Max. X spins =              0
(PID.TID 0000.0001) //            Min. X spins =     1000000000
(PID.TID 0000.0001) //          Total. X spins =              0
(PID.TID 0000.0001) //            Avg. X spins =       0.00E+00
(PID.TID 0000.0001) //         No. Y exchanges =              0
(PID.TID 0000.0001) //            Max. Y spins =              0
(PID.TID 0000.0001) //            Min. Y spins =     1000000000
(PID.TID 0000.0001) //          Total. Y spins =              0
(PID.TID 0000.0001) //            Avg. Y spins =       0.00E+00
(PID.TID 0000.0001) // o Tile number: 000005
(PID.TID 0000.0001) //         No. X exchanges =              0
(PID.TID 0000.0001) //            Max. X spins =              0
(PID.TID 0000.0001) //            Min. X spins =     1000000000
(PID.TID 0000.0001) //          Total. X spins =              0
(PID.TID 0000.0001) //            Avg. X spins =       0.00E+00
(PID.TID 0000.0001) //         No. Y exchanges =              0
(PID.TID 0000.0001) //            Max. Y spins =              0
(PID.TID 0000.0001) //            Min. Y spins =     1000000000
(PID.TID 0000.0001) //          Total. Y spins =              0
(PID.TID 0000.0001) //            Avg. Y spins =       0.00E+00
(PID.TID 0000.0001) // o Tile number: 000006
(PID.TID 0000.0001) //         No. X exchanges =              0
(PID.TID 0000.0001) //            Max. X spins =              0
(PID.TID 0000.0001) //            Min. X spins =     1000000000
(PID.TID 0000.0001) //          Total. X spins =              0
(PID.TID 0000.0001) //            Avg. X spins =       0.00E+00
(PID.TID 0000.0001) //         No. Y exchanges =              0
(PID.TID 0000.0001) //            Max. Y spins =              0
(PID.TID 0000.0001) //            Min. Y spins =     1000000000
(PID.TID 0000.0001) //          Total. Y spins =              0
(PID.TID 0000.0001) //            Avg. Y spins =       0.00E+00
(PID.TID 0000.0001) // o Thread number: 000001
(PID.TID 0000.0001) //            No. barriers =          17046
(PID.TID 0000.0001) //      Max. barrier spins =              1
(PID.TID 0000.0001) //      Min. barrier spins =              1
(PID.TID 0000.0001) //     Total barrier spins =          17046
(PID.TID 0000.0001) //      Avg. barrier spins =       1.00E+00
