(PID.TID 0000.0001) 
(PID.TID 0000.0001) // ======================================================
(PID.TID 0000.0001) //                      MITgcm UV
(PID.TID 0000.0001) //                      =========
(PID.TID 0000.0001) // ======================================================
(PID.TID 0000.0001) // execution environment starting up...
(PID.TID 0000.0001) // Run starting Wed Apr  1 14:19:48 1998
(PID.TID 0000.0001) // on melville.lcs.mit.edu
(PID.TID 0000.0001) // account cnh
(PID.TID 0000.0001) // MITgcm UV Release: $Name:  $
(PID.TID 0000.0001) 
(PID.TID 0000.0001) // =======================================================
(PID.TID 0000.0001) // Execution Environment parameter file "eedata"
(PID.TID 0000.0001) // =======================================================
(PID.TID 0000.0001) ># Example "eedata" file
(PID.TID 0000.0001) ># Lines beginning "#" are comments
(PID.TID 0000.0001) ># nTx - No. threads per process in X
(PID.TID 0000.0001) ># nTy - No. threads per process in Y
(PID.TID 0000.0001) > &EEPARMS
(PID.TID 0000.0001) > &
(PID.TID 0000.0001) ># Note: Some systems use & as the
(PID.TID 0000.0001) ># namelist terminator. Other systems
(PID.TID 0000.0001) ># use a / character (as shown here).
(PID.TID 0000.0001) 
(PID.TID 0000.0001) // =======================================================
(PID.TID 0000.0001) // Computational Grid Specification ( see files "SIZE.h" )
(PID.TID 0000.0001) //                                  ( and "eedata"       )
(PID.TID 0000.0001) // =======================================================
(PID.TID 0000.0001)      nPx =    1 ; /* No. processes in X */
(PID.TID 0000.0001)      nPy =    1 ; /* No. processes in Y */
(PID.TID 0000.0001)      nSx =    2 ; /* No. tiles in X per process */
(PID.TID 0000.0001)      nSy =    1 ; /* No. tiles in Y per process */
(PID.TID 0000.0001)      sNx =   30 ; /* Tile size in X */
(PID.TID 0000.0001)      sNy =    1 ; /* Tile size in Y */
(PID.TID 0000.0001)      OLx =    3 ; /* Tile overlap distance in X */
(PID.TID 0000.0001)      OLy =    3 ; /* Tile overlap distance in Y */
(PID.TID 0000.0001)      nTx =    1 ; /* No. threads in X per process */
(PID.TID 0000.0001)      nTy =    1 ; /* No. threads in Y per process */
(PID.TID 0000.0001)       Nr =   20 ; /* No. levels in the vertical   */
(PID.TID 0000.0001)       nX =   60 ; /* Total domain size in X ( = nPx*nSx*sNx ) */
(PID.TID 0000.0001)       nY =    1 ; /* Total domain size in Y ( = nPy*nSy*sNy ) */
(PID.TID 0000.0001)   nTiles =    2 ; /* Total no. tiles per process ( = nSx*nSy ) */
(PID.TID 0000.0001)   nProcs =    1 ; /* Total no. processes ( = nPx*nPy ) */
(PID.TID 0000.0001) nThreads =    1 ; /* Total no. threads per process ( = nTx*nTy ) */
(PID.TID 0000.0001) usingMPI =    F ; /* Flag used to control whether MPI is in use */
(PID.TID 0000.0001)                   /*  note: To execute a program with MPI calls */
(PID.TID 0000.0001)                   /*  it must be launched appropriately e.g     */
(PID.TID 0000.0001)                   /*  "mpirun -np 64 ......"                    */
(PID.TID 0000.0001) useCoupler=   F ; /* Flag used to control communications with */
(PID.TID 0000.0001)                   /*  other model components, through a coupler */
(PID.TID 0000.0001) 
(PID.TID 0000.0001) // ======================================================
(PID.TID 0000.0001) // Mapping of tiles to threads
(PID.TID 0000.0001) // ======================================================
(PID.TID 0000.0001) // -o- Thread   1, tiles (   1:   2,   1:   1)
(PID.TID 0000.0001) 
(PID.TID 0000.0001) // ======================================================
(PID.TID 0000.0001) // Tile <-> Tile connectvity table
(PID.TID 0000.0001) // ======================================================
(PID.TID 0000.0001) // Tile number: 000001 (process no. = 000001)
(PID.TID 0000.0001) //        WEST: Tile = 000002, Process = 000001, Comm = put
(PID.TID 0000.0001) //                bi = 000002, bj = 000001
(PID.TID 0000.0001) //        EAST: Tile = 000002, Process = 000001, Comm = put
(PID.TID 0000.0001) //                bi = 000002, bj = 000001
(PID.TID 0000.0001) //       SOUTH: Tile = 000001, Process = 000001, Comm = put
(PID.TID 0000.0001) //                bi = 000001, bj = 000001
(PID.TID 0000.0001) //       NORTH: Tile = 000001, Process = 000001, Comm = put
(PID.TID 0000.0001) //                bi = 000001, bj = 000001
(PID.TID 0000.0001) // Tile number: 000002 (process no. = 000001)
(PID.TID 0000.0001) //        WEST: Tile = 000001, Process = 000001, Comm = put
(PID.TID 0000.0001) //                bi = 000001, bj = 000001
(PID.TID 0000.0001) //        EAST: Tile = 000001, Process = 000001, Comm = put
(PID.TID 0000.0001) //                bi = 000001, bj = 000001
(PID.TID 0000.0001) //       SOUTH: Tile = 000002, Process = 000001, Comm = put
(PID.TID 0000.0001) //                bi = 000002, bj = 000001
(PID.TID 0000.0001) //       NORTH: Tile = 000002, Process = 000001, Comm = put
(PID.TID 0000.0001) //                bi = 000002, bj = 000001
(PID.TID 0000.0001) 
(PID.TID 0000.0001) // =======================================================
(PID.TID 0000.0001) // Model parameter file "data"
(PID.TID 0000.0001) // =======================================================
(PID.TID 0000.0001) ># ====================
(PID.TID 0000.0001) ># | Model parameters |
(PID.TID 0000.0001) ># ====================
(PID.TID 0000.0001) >#
(PID.TID 0000.0001) ># Continuous equation parameters
(PID.TID 0000.0001) > &PARM01
(PID.TID 0000.0001) > Tref = 0.04842, 0.0433231, 0.0382263, 0.0331295,
(PID.TID 0000.0001) >        0.0280326, 0.0229358, 0.0178389, 0.0127421,
(PID.TID 0000.0001) >        0.00764526, 0.00254842, -0.00254842, -0.00764526,
(PID.TID 0000.0001) >       -0.0127421, -0.0178389, -0.0229358, -0.0280326,
(PID.TID 0000.0001) >       -0.0331295, -0.0382263, -0.0433231, -0.04842,
(PID.TID 0000.0001) > sRef= 20*35.,
(PID.TID 0000.0001) > viscAz=1.E-3,
(PID.TID 0000.0001) > viscAh=1.0E-2,
(PID.TID 0000.0001) > no_slip_sides=.FALSE.,
(PID.TID 0000.0001) > no_slip_bottom=.FALSE.,
(PID.TID 0000.0001) > viscA4=0.E12,
(PID.TID 0000.0001) > diffKhT=1.0E-2
(PID.TID 0000.0001) > diffKzT=1.E-3,
(PID.TID 0000.0001) > diffKhS=1.E3,
(PID.TID 0000.0001) > diffKzS=1.E-5,
(PID.TID 0000.0001) > f0=0.0,
(PID.TID 0000.0001) > beta=0.E-11,
(PID.TID 0000.0001) > tAlpha=2.E-4,
(PID.TID 0000.0001) > sBeta =0.E-4,
(PID.TID 0000.0001) > gravity=9.81,
(PID.TID 0000.0001) > gBaro=9.81,
(PID.TID 0000.0001) > rigidLid=.FALSE.,
(PID.TID 0000.0001) > implicitFreeSurface=.TRUE.,
(PID.TID 0000.0001) > eosType='LINEAR',
(PID.TID 0000.0001) > nonHydrostatic=.FALSE.,
(PID.TID 0000.0001) > readBinaryPrec=64,
(PID.TID 0000.0001) > globalFiles=.TRUE.,
(PID.TID 0000.0001) > writeBinaryPrec=64,
(PID.TID 0000.0001) > writeStatePrec=64,
(PID.TID 0000.0001) > saltStepping=.FALSE.,
(PID.TID 0000.0001) > hFacMin=0.2,
(PID.TID 0000.0001) > implicSurfPress=0.5,
(PID.TID 0000.0001) > implicDiv2DFlow=0.5,
(PID.TID 0000.0001) > nonlinFreeSurf=3,
(PID.TID 0000.0001) > hFacInf=0.2,
(PID.TID 0000.0001) > hFacSup=1.8,
(PID.TID 0000.0001) > exactConserv=.TRUE.
(PID.TID 0000.0001) > &
(PID.TID 0000.0001) >
(PID.TID 0000.0001) ># Elliptic solver parameters
(PID.TID 0000.0001) > &PARM02
(PID.TID 0000.0001) > cg2dMaxIters=1000,
(PID.TID 0000.0001) > cg2dTargetResidual=1.E-13,
(PID.TID 0000.0001) > cg3dMaxIters=400,
(PID.TID 0000.0001) > cg3dTargetResidual=1.E-13,
(PID.TID 0000.0001) > &
(PID.TID 0000.0001) >
(PID.TID 0000.0001) ># Time stepping parameters
(PID.TID 0000.0001) > &PARM03
(PID.TID 0000.0001) > niter0=0,
(PID.TID 0000.0001) > nTimeSteps=100,
(PID.TID 0000.0001) > deltaT=500.,
(PID.TID 0000.0001) > abEps=0.1,
(PID.TID 0000.0001) > pChkptFreq=0.0,
(PID.TID 0000.0001) > chkptFreq=0.0,
(PID.TID 0000.0001) > dumpFreq=50000.,
(PID.TID 0000.0001) > monitorFreq=2500.,
(PID.TID 0000.0001) > &
(PID.TID 0000.0001) >
(PID.TID 0000.0001) ># Gridding parameters
(PID.TID 0000.0001) > &PARM04
(PID.TID 0000.0001) > usingCartesianGrid=.TRUE.,
(PID.TID 0000.0001) > usingSphericalPolarGrid=.FALSE.,
(PID.TID 0000.0001) > delXfile='delXvar'
(PID.TID 0000.0001) > delY=5.e3,
(PID.TID 0000.0001) > delZ=20*10.000000,
(PID.TID 0000.0001) > &
(PID.TID 0000.0001) >
(PID.TID 0000.0001) ># Input datasets
(PID.TID 0000.0001) > &PARM05
(PID.TID 0000.0001) > hydrogThetaFile='T.init',
(PID.TID 0000.0001) > bathyFile='topog.slope',
(PID.TID 0000.0001) > &
(PID.TID 0000.0001) 
(PID.TID 0000.0001) S/R INI_PARMS ; read PARM01 : OK
(PID.TID 0000.0001) S/R INI_PARMS ; read PARM02 : OK
(PID.TID 0000.0001) S/R INI_PARMS ; read PARM03 : OK
(PID.TID 0000.0001) S/R INI_PARMS ; read PARM04 : OK
(PID.TID 0000.0001) S/R INI_PARMS ; read PARM05 : OK
(PID.TID 0000.0001) %MON XC_max                       =   1.2972950819672E+04
(PID.TID 0000.0001) %MON XC_min                       =   1.0901639344262E+02
(PID.TID 0000.0001) %MON XC_mean                      =   6.5409836065574E+03
(PID.TID 0000.0001) %MON XC_sd                        =   3.7759141042143E+03
(PID.TID 0000.0001) %MON XG_max                       =   1.2863934426229E+04
(PID.TID 0000.0001) %MON XG_min                       =   5.6843418860808E-14
(PID.TID 0000.0001) %MON XG_mean                      =   6.4319672131147E+03
(PID.TID 0000.0001) %MON XG_sd                        =   3.7759141042143E+03
(PID.TID 0000.0001) %MON DXC_max                      =   2.1803278688525E+02
(PID.TID 0000.0001) %MON DXC_min                      =   2.1803278688525E+02
(PID.TID 0000.0001) %MON DXC_mean                     =   2.1803278688525E+02
(PID.TID 0000.0001) %MON DXC_sd                       =   2.5579538487364E-13
(PID.TID 0000.0001) %MON DXF_max                      =   2.1803278688525E+02
(PID.TID 0000.0001) %MON DXF_min                      =   2.1803278688525E+02
(PID.TID 0000.0001) %MON DXF_mean                     =   2.1803278688525E+02
(PID.TID 0000.0001) %MON DXF_sd                       =   2.5579538487364E-13
(PID.TID 0000.0001) %MON DXG_max                      =   2.1803278688525E+02
(PID.TID 0000.0001) %MON DXG_min                      =   2.1803278688525E+02
(PID.TID 0000.0001) %MON DXG_mean                     =   2.1803278688525E+02
(PID.TID 0000.0001) %MON DXG_sd                       =   2.5579538487364E-13
(PID.TID 0000.0001) %MON DXV_max                      =   2.1803278688525E+02
(PID.TID 0000.0001) %MON DXV_min                      =   2.1803278688525E+02
(PID.TID 0000.0001) %MON DXV_mean                     =   2.1803278688525E+02
(PID.TID 0000.0001) %MON DXV_sd                       =   2.5579538487364E-13
(PID.TID 0000.0001) %MON YC_max                       =   2.5000000000000E+03
(PID.TID 0000.0001) %MON YC_min                       =   2.5000000000000E+03
(PID.TID 0000.0001) %MON YC_mean                      =   2.5000000000000E+03
(PID.TID 0000.0001) %MON YC_sd                        =   0.0000000000000E+00
(PID.TID 0000.0001) %MON YG_max                       =   0.0000000000000E+00
(PID.TID 0000.0001) %MON YG_min                       =   0.0000000000000E+00
(PID.TID 0000.0001) %MON YG_mean                      =   0.0000000000000E+00
(PID.TID 0000.0001) %MON YG_sd                        =   0.0000000000000E+00
(PID.TID 0000.0001) %MON DYC_max                      =   5.0000000000000E+03
(PID.TID 0000.0001) %MON DYC_min                      =   5.0000000000000E+03
(PID.TID 0000.0001) %MON DYC_mean                     =   5.0000000000000E+03
(PID.TID 0000.0001) %MON DYC_sd                       =   0.0000000000000E+00
(PID.TID 0000.0001) %MON DYF_max                      =   5.0000000000000E+03
(PID.TID 0000.0001) %MON DYF_min                      =   5.0000000000000E+03
(PID.TID 0000.0001) %MON DYF_mean                     =   5.0000000000000E+03
(PID.TID 0000.0001) %MON DYF_sd                       =   0.0000000000000E+00
(PID.TID 0000.0001) %MON DYG_max                      =   5.0000000000000E+03
(PID.TID 0000.0001) %MON DYG_min                      =   5.0000000000000E+03
(PID.TID 0000.0001) %MON DYG_mean                     =   5.0000000000000E+03
(PID.TID 0000.0001) %MON DYG_sd                       =   0.0000000000000E+00
(PID.TID 0000.0001) %MON DYU_max                      =   5.0000000000000E+03
(PID.TID 0000.0001) %MON DYU_min                      =   5.0000000000000E+03
(PID.TID 0000.0001) %MON DYU_mean                     =   5.0000000000000E+03
(PID.TID 0000.0001) %MON DYU_sd                       =   0.0000000000000E+00
(PID.TID 0000.0001) %MON RA_max                       =   1.0901639344262E+06
(PID.TID 0000.0001) %MON RA_min                       =   1.0901639344262E+06
(PID.TID 0000.0001) %MON RA_mean                      =   1.0901639344262E+06
(PID.TID 0000.0001) %MON RA_sd                        =   1.6298145055771E-09
(PID.TID 0000.0001) %MON RAW_max                      =   1.0901639344262E+06
(PID.TID 0000.0001) %MON RAW_min                      =   1.0901639344262E+06
(PID.TID 0000.0001) %MON RAW_mean                     =   1.0901639344262E+06
(PID.TID 0000.0001) %MON RAW_sd                       =   1.6298145055771E-09
(PID.TID 0000.0001) %MON RAS_max                      =   1.0901639344262E+06
(PID.TID 0000.0001) %MON RAS_min                      =   1.0901639344262E+06
(PID.TID 0000.0001) %MON RAS_mean                     =   1.0901639344262E+06
(PID.TID 0000.0001) %MON RAS_sd                       =   1.6298145055771E-09
(PID.TID 0000.0001) %MON RAZ_max                      =   1.0901639344262E+06
(PID.TID 0000.0001) %MON RAZ_min                      =   1.0901639344262E+06
(PID.TID 0000.0001) %MON RAZ_mean                     =   1.0901639344262E+06
(PID.TID 0000.0001) %MON RAZ_sd                       =   1.6298145055771E-09
(PID.TID 0000.0001)  MDSREADFIELD: opening global file: topog.slope
(PID.TID 0000.0001) // =======================================================
(PID.TID 0000.0001) // Field Model R_low (ini_masks_etc) at iteration          1
(PID.TID 0000.0001) // CMIN =         -2.000000000000000E+02
(PID.TID 0000.0001) // CMAX =         -4.000000000000000E+01
(PID.TID 0000.0001) // CINT =          5.925925925925926E+00
(PID.TID 0000.0001) // SYMBOLS (CMIN->CMAX): -abcdefghijklmnopqrstuvwxyz+
(PID.TID 0000.0001) //                  0.0: .
(PID.TID 0000.0001) // RANGE I (Lo:Hi:Step):(  -2:  63:   1)
(PID.TID 0000.0001) // RANGE J (Lo:Hi:Step):(   4:  -2:  -1)
(PID.TID 0000.0001) // RANGE K (Lo:Hi:Step):(   1:   1:   1)
(PID.TID 0000.0001) // =======================================================
(PID.TID 0000.0001) K =   1
(PID.TID 0000.0001) //                I=7       I=17      I=27      I=31      I=41      I=51      I=61
(PID.TID 0000.0001) // |--J--|**0123456|890123456|890123456|890123890|234567890|234567890|234567890|23
(PID.TID 0000.0001) //      4 ++.-----------abcdefghikkmnopqrstvwxrstvwxyz++++++++++++++++++++++++.---
(PID.TID 0000.0001) //      3 ++.-----------abcdefghikkmnopqrstvwxrstvwxyz++++++++++++++++++++++++.---
(PID.TID 0000.0001) //      2 ++.-----------abcdefghikkmnopqrstvwxrstvwxyz++++++++++++++++++++++++.---
(PID.TID 0000.0001) //      1 ++.-----------abcdefghikkmnopqrstvwxrstvwxyz++++++++++++++++++++++++.---
(PID.TID 0000.0001) //      0 ++.-----------abcdefghikkmnopqrstvwxrstvwxyz++++++++++++++++++++++++.---
(PID.TID 0000.0001) //     -1 ++.-----------abcdefghikkmnopqrstvwxrstvwxyz++++++++++++++++++++++++.---
(PID.TID 0000.0001) //     -2 ++.-----------abcdefghikkmnopqrstvwxrstvwxyz++++++++++++++++++++++++.---
(PID.TID 0000.0001) // =======================================================
(PID.TID 0000.0001) // END OF FIELD                                          =
(PID.TID 0000.0001) // =======================================================
(PID.TID 0000.0001) 
(PID.TID 0000.0001) // =======================================================
(PID.TID 0000.0001) // Field Model Ro_surf (ini_masks_etc) at iteration          1
(PID.TID 0000.0001) // CMIN =          1.000000000000000E+32
(PID.TID 0000.0001) // CMAX =         -1.000000000000000E+32
(PID.TID 0000.0001) // CINT =          0.000000000000000E+00
(PID.TID 0000.0001) // SYMBOLS (CMIN->CMAX): -abcdefghijklmnopqrstuvwxyz+
(PID.TID 0000.0001) //                  0.0: .
(PID.TID 0000.0001) // RANGE I (Lo:Hi:Step):(  -2:  63:   1)
(PID.TID 0000.0001) // RANGE J (Lo:Hi:Step):(   4:  -2:  -1)
(PID.TID 0000.0001) // RANGE K (Lo:Hi:Step):(   1:   1:   1)
(PID.TID 0000.0001) // =======================================================
(PID.TID 0000.0001) K =   1
(PID.TID 0000.0001) //                I=7       I=17      I=27      I=31      I=41      I=51      I=61
(PID.TID 0000.0001) // |--J--|**0123456|890123456|890123456|890123890|234567890|234567890|234567890|23
(PID.TID 0000.0001) //      4 ........................................................................
(PID.TID 0000.0001) //      3 ........................................................................
(PID.TID 0000.0001) //      2 ........................................................................
(PID.TID 0000.0001) //      1 ........................................................................
(PID.TID 0000.0001) //      0 ........................................................................
(PID.TID 0000.0001) //     -1 ........................................................................
(PID.TID 0000.0001) //     -2 ........................................................................
(PID.TID 0000.0001) // =======================================================
(PID.TID 0000.0001) // END OF FIELD                                          =
(PID.TID 0000.0001) // =======================================================
(PID.TID 0000.0001) 
(PID.TID 0000.0001) // =======================================================
(PID.TID 0000.0001) // Field hFacC at iteration          1
(PID.TID 0000.0001) // CMIN =          1.000000000000000E+00
(PID.TID 0000.0001) // CMAX =          1.000000000000000E+00
(PID.TID 0000.0001) // CINT =          0.000000000000000E+00
(PID.TID 0000.0001) // SYMBOLS (CMIN->CMAX): -abcdefghijklmnopqrstuvwxyz+
(PID.TID 0000.0001) //                  0.0: .
(PID.TID 0000.0001) // RANGE I (Lo:Hi:Step):(  -2:  63:   1)
(PID.TID 0000.0001) // RANGE J (Lo:Hi:Step):(   4:  -2:  -1)
(PID.TID 0000.0001) // RANGE K (Lo:Hi:Step):(   1:   1:   1)
(PID.TID 0000.0001) // =======================================================
(PID.TID 0000.0001) K =   1
(PID.TID 0000.0001) //                I=7       I=17      I=27      I=31      I=41      I=51      I=61
(PID.TID 0000.0001) // |--J--|**0123456|890123456|890123456|890123890|234567890|234567890|234567890|23
(PID.TID 0000.0001) //      4 --.-----------------------------------------------------------------.---
(PID.TID 0000.0001) //      3 --.-----------------------------------------------------------------.---
(PID.TID 0000.0001) //      2 --.-----------------------------------------------------------------.---
(PID.TID 0000.0001) //      1 --.-----------------------------------------------------------------.---
(PID.TID 0000.0001) //      0 --.-----------------------------------------------------------------.---
(PID.TID 0000.0001) //     -1 --.-----------------------------------------------------------------.---
(PID.TID 0000.0001) //     -2 --.-----------------------------------------------------------------.---
(PID.TID 0000.0001) // =======================================================
(PID.TID 0000.0001) // END OF FIELD                                          =
(PID.TID 0000.0001) // =======================================================
(PID.TID 0000.0001) 
(PID.TID 0000.0001) // =======================================================
(PID.TID 0000.0001) // Field hFacW at iteration          1
(PID.TID 0000.0001) // CMIN =          1.000000000000000E+00
(PID.TID 0000.0001) // CMAX =          1.000000000000000E+00
(PID.TID 0000.0001) // CINT =          0.000000000000000E+00
(PID.TID 0000.0001) // SYMBOLS (CMIN->CMAX): -abcdefghijklmnopqrstuvwxyz+
(PID.TID 0000.0001) //                  0.0: .
(PID.TID 0000.0001) // RANGE I (Lo:Hi:Step):(  -2:  63:   1)
(PID.TID 0000.0001) // RANGE J (Lo:Hi:Step):(   4:  -2:  -1)
(PID.TID 0000.0001) // RANGE K (Lo:Hi:Step):(   1:   1:   1)
(PID.TID 0000.0001) // =======================================================
(PID.TID 0000.0001) K =   1
(PID.TID 0000.0001) //                I=7       I=17      I=27      I=31      I=41      I=51      I=61
(PID.TID 0000.0001) // |--J--|**0123456|890123456|890123456|890123890|234567890|234567890|234567890|23
(PID.TID 0000.0001) //      4 --..----------------------------------------------------------------..--
(PID.TID 0000.0001) //      3 --..----------------------------------------------------------------..--
(PID.TID 0000.0001) //      2 --..----------------------------------------------------------------..--
(PID.TID 0000.0001) //      1 --..----------------------------------------------------------------..--
(PID.TID 0000.0001) //      0 --..----------------------------------------------------------------..--
(PID.TID 0000.0001) //     -1 --..----------------------------------------------------------------..--
(PID.TID 0000.0001) //     -2 --..----------------------------------------------------------------..--
(PID.TID 0000.0001) // =======================================================
(PID.TID 0000.0001) // END OF FIELD                                          =
(PID.TID 0000.0001) // =======================================================
(PID.TID 0000.0001) 
(PID.TID 0000.0001) // =======================================================
(PID.TID 0000.0001) // Field hFacS at iteration          1
(PID.TID 0000.0001) // CMIN =          1.000000000000000E+00
(PID.TID 0000.0001) // CMAX =          1.000000000000000E+00
(PID.TID 0000.0001) // CINT =          0.000000000000000E+00
(PID.TID 0000.0001) // SYMBOLS (CMIN->CMAX): -abcdefghijklmnopqrstuvwxyz+
(PID.TID 0000.0001) //                  0.0: .
(PID.TID 0000.0001) // RANGE I (Lo:Hi:Step):(  -2:  63:   1)
(PID.TID 0000.0001) // RANGE J (Lo:Hi:Step):(   4:  -2:  -1)
(PID.TID 0000.0001) // RANGE K (Lo:Hi:Step):(   1:   1:   1)
(PID.TID 0000.0001) // =======================================================
(PID.TID 0000.0001) K =   1
(PID.TID 0000.0001) //                I=7       I=17      I=27      I=31      I=41      I=51      I=61
(PID.TID 0000.0001) // |--J--|**0123456|890123456|890123456|890123890|234567890|234567890|234567890|23
(PID.TID 0000.0001) //      4 --.-----------------------------------------------------------------.---
(PID.TID 0000.0001) //      3 --.-----------------------------------------------------------------.---
(PID.TID 0000.0001) //      2 --.-----------------------------------------------------------------.---
(PID.TID 0000.0001) //      1 --.-----------------------------------------------------------------.---
(PID.TID 0000.0001) //      0 --.-----------------------------------------------------------------.---
(PID.TID 0000.0001) //     -1 --.-----------------------------------------------------------------.---
(PID.TID 0000.0001) //     -2 --.-----------------------------------------------------------------.---
(PID.TID 0000.0001) // =======================================================
(PID.TID 0000.0001) // END OF FIELD                                          =
(PID.TID 0000.0001) // =======================================================
(PID.TID 0000.0001) 
(PID.TID 0000.0001)  PACKAGES_BOOT: opening data.pkg
(PID.TID 0000.0001)  OPEN_COPY_DATA_FILE: opening file data.pkg
(PID.TID 0000.0001) // =======================================================
(PID.TID 0000.0001) // Parameter file "data.pkg"
(PID.TID 0000.0001) // =======================================================
(PID.TID 0000.0001) ># Packages
(PID.TID 0000.0001) > &PACKAGES
(PID.TID 0000.0001) > useOBCS=.TRUE.,
(PID.TID 0000.0001) > &
(PID.TID 0000.0001) 
(PID.TID 0000.0001)  PACKAGES_BOOT: finished reading data.pkg
(PID.TID 0000.0001)  OBCS_READPARMS: opening data.obcs
(PID.TID 0000.0001)  OPEN_COPY_DATA_FILE: opening file data.obcs
(PID.TID 0000.0001) // =======================================================
(PID.TID 0000.0001) // Parameter file "data.obcs"
(PID.TID 0000.0001) // =======================================================
(PID.TID 0000.0001) ># Open-boundaries
(PID.TID 0000.0001) > &OBCS_PARM01
(PID.TID 0000.0001) > OB_Ieast=-1,
(PID.TID 0000.0001) > OB_Iwest=1,
(PID.TID 0000.0001) > &
(PID.TID 0000.0001) >
(PID.TID 0000.0001) 
 OB Jn = 0 0 0 0 0 0 0 0 0 0 0 0 0 0 0 0 0 0 0 0 0 0 0 0 0 0 0 0 0 0 0 0 0 0 0 0
 0 0 0 0 0 0 0 0 0 0 0 0 0 0 0 0 0 0 0 0 0 0 0 0
 OB Js = 0 0 0 0 0 0 0 0 0 0 0 0 0 0 0 0 0 0 0 0 0 0 0 0 0 0 0 0 0 0 0 0 0 0 0 0
 0 0 0 0 0 0 0 0 0 0 0 0 0 0 0 0 0 0 0 0 0 0 0 0
 OB Ie = 60
 OB Iw = 1
(PID.TID 0000.0001)  OBCS_READPARMS: finished reading data.obcs
(PID.TID 0000.0001) 
(PID.TID 0000.0001) // ===================================
(PID.TID 0000.0001) // GAD parameters :
(PID.TID 0000.0001) // ===================================
(PID.TID 0000.0001) tempAdvScheme =   /* Temp. advection scheme selector */
(PID.TID 0000.0001)                       2
(PID.TID 0000.0001)     ;
(PID.TID 0000.0001) tempMultiDimAdvec =   /* use Muti-Dim Advec method for Temp */
(PID.TID 0000.0001)                   F
(PID.TID 0000.0001)     ;
(PID.TID 0000.0001) tempAdamsBashforth =   /* use Adams-Bashforth time-stepping for Temp */
(PID.TID 0000.0001)                   T
(PID.TID 0000.0001)     ;
(PID.TID 0000.0001) saltAdvScheme =   /* Salt. advection scheme selector */
(PID.TID 0000.0001)                       2
(PID.TID 0000.0001)     ;
(PID.TID 0000.0001) saltMultiDimAdvec =   /* use Muti-Dim Advec method for Salt */
(PID.TID 0000.0001)                   F
(PID.TID 0000.0001)     ;
(PID.TID 0000.0001) saltAdamsBashforth =   /* use Adams-Bashforth time-stepping for Salt */
(PID.TID 0000.0001)                   T
(PID.TID 0000.0001)     ;
(PID.TID 0000.0001) // ===================================
(PID.TID 0000.0001) OBCS_CHECK: #define ALLOW_OBCS
(PID.TID 0000.0001) OBCS_CHECK: #define ALLOW_ORLANSKI
(PID.TID 0000.0001) OBCS_CHECK: OK
(PID.TID 0000.0001) %MON fCori_max                    =   0.0000000000000E+00
(PID.TID 0000.0001) %MON fCori_min                    =   0.0000000000000E+00
(PID.TID 0000.0001) %MON fCori_mean                   =   0.0000000000000E+00
(PID.TID 0000.0001) %MON fCori_sd                     =   0.0000000000000E+00
(PID.TID 0000.0001) %MON fCoriG_max                   =   0.0000000000000E+00
(PID.TID 0000.0001) %MON fCoriG_min                   =   0.0000000000000E+00
(PID.TID 0000.0001) %MON fCoriG_mean                  =   0.0000000000000E+00
(PID.TID 0000.0001) %MON fCoriG_sd                    =   0.0000000000000E+00
(PID.TID 0000.0001) %MON fCoriCos_max                 =   0.0000000000000E+00
(PID.TID 0000.0001) %MON fCoriCos_min                 =   0.0000000000000E+00
(PID.TID 0000.0001) %MON fCoriCos_mean                =   0.0000000000000E+00
(PID.TID 0000.0001) %MON fCoriCos_sd                  =   0.0000000000000E+00
(PID.TID 0000.0001) // CG2D normalisation factor =          0.8721311475409838269781670E-03
(PID.TID 0000.0001) 
(PID.TID 0000.0001) // CG3D normalisation factor =          0.9172932330827066738218253E-05
(PID.TID 0000.0001) 
(PID.TID 0000.0001) CONFIG_CHECK: OK
(PID.TID 0000.0001) // =======================================================
(PID.TID 0000.0001) // Model configuration
(PID.TID 0000.0001) // =======================================================
(PID.TID 0000.0001) //
(PID.TID 0000.0001) // "Physical" paramters ( PARM01 in namelist )
(PID.TID 0000.0001) //
(PID.TID 0000.0001) buoyancyRelation = OCEANIC
(PID.TID 0000.0001) tRef =   /* Reference temperature profile ( oC or oK ) */
(PID.TID 0000.0001)                 4.842000000000000E-02,      /* K =  1 */
(PID.TID 0000.0001)                 4.332310000000000E-02,      /* K =  2 */
(PID.TID 0000.0001)                 3.822630000000000E-02,      /* K =  3 */
(PID.TID 0000.0001)                 3.312950000000000E-02,      /* K =  4 */
(PID.TID 0000.0001)                 2.803260000000000E-02,      /* K =  5 */
(PID.TID 0000.0001)                 2.293580000000000E-02,      /* K =  6 */
(PID.TID 0000.0001)                 1.783890000000000E-02,      /* K =  7 */
(PID.TID 0000.0001)                 1.274210000000000E-02,      /* K =  8 */
(PID.TID 0000.0001)                 7.645260000000000E-03,      /* K =  9 */
(PID.TID 0000.0001)                 2.548420000000000E-03,      /* K = 10 */
(PID.TID 0000.0001)                -2.548420000000000E-03,      /* K = 11 */
(PID.TID 0000.0001)                -7.645260000000000E-03,      /* K = 12 */
(PID.TID 0000.0001)                -1.274210000000000E-02,      /* K = 13 */
(PID.TID 0000.0001)                -1.783890000000000E-02,      /* K = 14 */
(PID.TID 0000.0001)                -2.293580000000000E-02,      /* K = 15 */
(PID.TID 0000.0001)                -2.803260000000000E-02,      /* K = 16 */
(PID.TID 0000.0001)                -3.312950000000000E-02,      /* K = 17 */
(PID.TID 0000.0001)                -3.822630000000000E-02,      /* K = 18 */
(PID.TID 0000.0001)                -4.332310000000000E-02,      /* K = 19 */
(PID.TID 0000.0001)                -4.842000000000000E-02       /* K = 20 */
(PID.TID 0000.0001)     ;
(PID.TID 0000.0001) sRef =   /* Reference salinity profile ( ppt ) */
(PID.TID 0000.0001)    20 @  3.500000000000000E+01              /* K =  1: 20 */
(PID.TID 0000.0001)     ;
(PID.TID 0000.0001) viscAh =   /* Lateral eddy viscosity ( m^2/s ) */
(PID.TID 0000.0001)                 1.000000000000000E-02
(PID.TID 0000.0001)     ;
(PID.TID 0000.0001) viscA4 =   /* Lateral biharmonic viscosity ( m^4/s ) */
(PID.TID 0000.0001)                 0.000000000000000E+00
(PID.TID 0000.0001)     ;
(PID.TID 0000.0001) no_slip_sides =  /* Viscous BCs: No-slip sides */
(PID.TID 0000.0001)                   F
(PID.TID 0000.0001)     ;
(PID.TID 0000.0001) viscAr =   /* Vertical eddy viscosity ( units of r^2/s ) */
(PID.TID 0000.0001)                 1.000000000000000E-03
(PID.TID 0000.0001)     ;
(PID.TID 0000.0001) diffKhT =   /* Laplacian diffusion of heat laterally ( m^2/s ) */
(PID.TID 0000.0001)                 1.000000000000000E-02
(PID.TID 0000.0001)     ;
(PID.TID 0000.0001) diffK4T =   /* Bihaarmonic diffusion of heat laterally ( m^4/s ) */
(PID.TID 0000.0001)                 0.000000000000000E+00
(PID.TID 0000.0001)     ;
(PID.TID 0000.0001) diffKrT =   /* Laplacian diffusion of heat vertically ( m^2/s ) */
(PID.TID 0000.0001)                 1.000000000000000E-03
(PID.TID 0000.0001)     ;
(PID.TID 0000.0001) diffKhS =   /* Laplacian diffusion of salt laterally ( m^2/s ) */
(PID.TID 0000.0001)                 1.000000000000000E+03
(PID.TID 0000.0001)     ;
(PID.TID 0000.0001) diffK4S =   /* Bihaarmonic diffusion of salt laterally ( m^4/s ) */
(PID.TID 0000.0001)                 0.000000000000000E+00
(PID.TID 0000.0001)     ;
(PID.TID 0000.0001) diffKrS =   /* Laplacian diffusion of salt vertically ( m^2/s ) */
(PID.TID 0000.0001)                 1.000000000000000E-05
(PID.TID 0000.0001)     ;
(PID.TID 0000.0001)  Equation of State : eosType = LINEAR
(PID.TID 0000.0001) tAlpha =   /* Linear EOS thermal expansion coefficient ( 1/degree ) */
(PID.TID 0000.0001)                 2.000000000000000E-04
(PID.TID 0000.0001)     ;
(PID.TID 0000.0001) sBeta =   /* Linear EOS haline contraction coefficient ( 1/ppt ) */
(PID.TID 0000.0001)                 0.000000000000000E+00
(PID.TID 0000.0001)     ;
(PID.TID 0000.0001) rhonil =   /* Reference density ( kg/m^3 ) */
(PID.TID 0000.0001)                 9.998000000000000E+02
(PID.TID 0000.0001)     ;
(PID.TID 0000.0001) rhoConst =   /* Reference density ( kg/m^3 ) */
(PID.TID 0000.0001)                 9.998000000000000E+02
(PID.TID 0000.0001)     ;
(PID.TID 0000.0001) rhoConstFresh =   /* Reference density ( kg/m^3 ) */
(PID.TID 0000.0001)                 9.998000000000000E+02
(PID.TID 0000.0001)     ;
(PID.TID 0000.0001) gravity =   /* Gravitational acceleration ( m/s^2 ) */
(PID.TID 0000.0001)                 9.810000000000000E+00
(PID.TID 0000.0001)     ;
(PID.TID 0000.0001) gBaro =   /* Barotropic gravity ( m/s^2 ) */
(PID.TID 0000.0001)                 9.810000000000000E+00
(PID.TID 0000.0001)     ;
(PID.TID 0000.0001) rotationPeriod =   /* Rotation Period ( s ) */
(PID.TID 0000.0001)                 8.640000000000000E+04
(PID.TID 0000.0001)     ;
(PID.TID 0000.0001) omega =   /* Angular velocity ( rad/s ) */
(PID.TID 0000.0001)                 7.272205216643040E-05
(PID.TID 0000.0001)     ;
(PID.TID 0000.0001) f0 =   /* Reference coriolis parameter ( 1/s ) */
(PID.TID 0000.0001)                 0.000000000000000E+00
(PID.TID 0000.0001)     ;
(PID.TID 0000.0001) beta =   /* Beta ( 1/(m.s) ) */
(PID.TID 0000.0001)                 0.000000000000000E+00
(PID.TID 0000.0001)     ;
(PID.TID 0000.0001) freeSurfFac =   /* Implicit free surface factor */
(PID.TID 0000.0001)                 1.000000000000000E+00
(PID.TID 0000.0001)     ;
(PID.TID 0000.0001) implicitFreeSurface =   /* Implicit free surface on/off flag */
(PID.TID 0000.0001)                   T
(PID.TID 0000.0001)     ;
(PID.TID 0000.0001) rigidLid =   /* Rigid lid on/off flag */
(PID.TID 0000.0001)                   F
(PID.TID 0000.0001)     ;
(PID.TID 0000.0001) implicSurfPress =   /* Surface Pressure implicit factor (0-1)*/
(PID.TID 0000.0001)                 5.000000000000000E-01
(PID.TID 0000.0001)     ;
(PID.TID 0000.0001) implicDiv2Dflow =   /* Barot. Flow Div. implicit factor (0-1)*/
(PID.TID 0000.0001)                 5.000000000000000E-01
(PID.TID 0000.0001)     ;
(PID.TID 0000.0001) exactConserv =   /* Exact Volume Conservation on/off flag*/
(PID.TID 0000.0001)                   T
(PID.TID 0000.0001)     ;
(PID.TID 0000.0001) uniformLin_PhiSurf =   /* use uniform Bo_surf on/off flag*/
(PID.TID 0000.0001)                   T
(PID.TID 0000.0001)     ;
(PID.TID 0000.0001) nonlinFreeSurf =   /* Non-linear Free Surf. options (-1,0,1,2,3)*/
(PID.TID 0000.0001)                       3
(PID.TID 0000.0001)     ;
(PID.TID 0000.0001)      -1,0= Off ; 1,2,3= On, 2=+rescale gU,gV, 3=+update cg2d solv.
(PID.TID 0000.0001) hFacInf =   /* lower threshold for hFac (nonlinFreeSurf only)*/
(PID.TID 0000.0001)                 2.000000000000000E-01
(PID.TID 0000.0001)     ;
(PID.TID 0000.0001) hFacSup =   /* upper threshold for hFac (nonlinFreeSurf only)*/
(PID.TID 0000.0001)                 1.800000000000000E+00
(PID.TID 0000.0001)     ;
(PID.TID 0000.0001) select_rStar =   /* r* Coordinate options (not yet implemented)*/
(PID.TID 0000.0001)                       0
(PID.TID 0000.0001)     ;
(PID.TID 0000.0001) useRealFreshWaterFlux =   /* Real Fresh Water Flux on/off flag*/
(PID.TID 0000.0001)                   F
(PID.TID 0000.0001)     ;
(PID.TID 0000.0001) convertFW2Salt = /* convert F.W. Flux to Salt Flux (-1=use local S)(ppt)*/
(PID.TID 0000.0001)                 3.500000000000000E+01
(PID.TID 0000.0001)     ;
(PID.TID 0000.0001) nonHydrostatic =  /* Non-Hydrostatic on/off flag */
(PID.TID 0000.0001)                   F
(PID.TID 0000.0001)     ;
(PID.TID 0000.0001) momStepping =  /* Momentum equation on/off flag */
(PID.TID 0000.0001)                   T
(PID.TID 0000.0001)     ;
(PID.TID 0000.0001) momAdvection =  /* Momentum advection on/off flag */
(PID.TID 0000.0001)                   T
(PID.TID 0000.0001)     ;
(PID.TID 0000.0001) momViscosity =  /* Momentum viscosity on/off flag */
(PID.TID 0000.0001)                   T
(PID.TID 0000.0001)     ;
(PID.TID 0000.0001) momImplVertAdv =/* Momentum implicit vert. advection on/off*/
(PID.TID 0000.0001)                   F
(PID.TID 0000.0001)     ;
(PID.TID 0000.0001) implicitViscosity = /* Implicit viscosity on/off flag */
(PID.TID 0000.0001)                   F
(PID.TID 0000.0001)     ;
(PID.TID 0000.0001) useCoriolis =  /* Coriolis on/off flag */
(PID.TID 0000.0001)                   T
(PID.TID 0000.0001)     ;
(PID.TID 0000.0001) useCDscheme =  /* CD scheme on/off flag */
(PID.TID 0000.0001)                   F
(PID.TID 0000.0001)     ;
(PID.TID 0000.0001) useJamartWetPoints= /* Coriolis WetPoints method flag */
(PID.TID 0000.0001)                   F
(PID.TID 0000.0001)     ;
(PID.TID 0000.0001) momForcing =  /* Momentum forcing on/off flag */
(PID.TID 0000.0001)                   T
(PID.TID 0000.0001)     ;
(PID.TID 0000.0001) momPressureForcing =  /* Momentum pressure term on/off flag */
(PID.TID 0000.0001)                   T
(PID.TID 0000.0001)     ;
(PID.TID 0000.0001) staggerTimeStep =   /* Stagger time stepping on/off flag */
(PID.TID 0000.0001)                   F
(PID.TID 0000.0001)     ;
(PID.TID 0000.0001) multiDimAdvection =   /* enable/disable Multi-Dim Advection */
(PID.TID 0000.0001)                   T
(PID.TID 0000.0001)     ;
(PID.TID 0000.0001) implicitDiffusion =/* Implicit Diffusion on/off flag */
(PID.TID 0000.0001)                   F
(PID.TID 0000.0001)     ;
(PID.TID 0000.0001) tempStepping =  /* Temperature equation on/off flag */
(PID.TID 0000.0001)                   T
(PID.TID 0000.0001)     ;
(PID.TID 0000.0001) tempAdvection=  /* Temperature advection on/off flag */
(PID.TID 0000.0001)                   T
(PID.TID 0000.0001)     ;
(PID.TID 0000.0001) tempImplVertAdv =/* Temp. implicit vert. advection on/off */
(PID.TID 0000.0001)                   F
(PID.TID 0000.0001)     ;
(PID.TID 0000.0001) tempForcing  =  /* Temperature forcing on/off flag */
(PID.TID 0000.0001)                   T
(PID.TID 0000.0001)     ;
(PID.TID 0000.0001) saltStepping =  /* Salinity equation on/off flag */
(PID.TID 0000.0001)                   F
(PID.TID 0000.0001)     ;
(PID.TID 0000.0001) saltAdvection=  /* Salinity advection on/off flag */
(PID.TID 0000.0001)                   F
(PID.TID 0000.0001)     ;
(PID.TID 0000.0001) saltImplVertAdv =/* Sali. implicit vert. advection on/off */
(PID.TID 0000.0001)                   F
(PID.TID 0000.0001)     ;
(PID.TID 0000.0001) saltForcing  =  /* Salinity forcing on/off flag */
(PID.TID 0000.0001)                   F
(PID.TID 0000.0001)     ;
(PID.TID 0000.0001) //
(PID.TID 0000.0001) // Elliptic solver(s) paramters ( PARM02 in namelist )
(PID.TID 0000.0001) //
(PID.TID 0000.0001) cg2dMaxIters =   /* Upper limit on 2d con. grad iterations  */
(PID.TID 0000.0001)                    1000
(PID.TID 0000.0001)     ;
(PID.TID 0000.0001) cg2dChkResFreq =   /* 2d con. grad convergence test frequency */
(PID.TID 0000.0001)                       1
(PID.TID 0000.0001)     ;
(PID.TID 0000.0001) cg2dTargetResidual =   /* 2d con. grad target residual  */
(PID.TID 0000.0001)                 1.000000000000000E-13
(PID.TID 0000.0001)     ;
(PID.TID 0000.0001) //
(PID.TID 0000.0001) // Time stepping paramters ( PARM03 in namelist )
(PID.TID 0000.0001) //
(PID.TID 0000.0001) nIter0 =   /* Base timestep number  */
(PID.TID 0000.0001)                       0
(PID.TID 0000.0001)     ;
(PID.TID 0000.0001) nTimeSteps =   /* Number of timesteps */
(PID.TID 0000.0001)                     100
(PID.TID 0000.0001)     ;
(PID.TID 0000.0001) deltatTmom =   /* Momentum equation timestep ( s ) */
(PID.TID 0000.0001)                 5.000000000000000E+02
(PID.TID 0000.0001)     ;
(PID.TID 0000.0001) deltaTfreesurf =   /* FreeSurface equation timestep ( s ) */
(PID.TID 0000.0001)                 5.000000000000000E+02
(PID.TID 0000.0001)     ;
(PID.TID 0000.0001) deltatTtracer =   /* Tracer equation timestep ( s ) */
(PID.TID 0000.0001)                 5.000000000000000E+02
(PID.TID 0000.0001)     ;
(PID.TID 0000.0001) deltatTClock  =   /* Model clock timestep ( s ) */
(PID.TID 0000.0001)                 5.000000000000000E+02
(PID.TID 0000.0001)     ;
(PID.TID 0000.0001) cAdjFreq =   /* Convective adjustment interval ( s ) */
(PID.TID 0000.0001)                 0.000000000000000E+00
(PID.TID 0000.0001)     ;
(PID.TID 0000.0001) forcing_In_AB =   /* put T,S Forcing in Adams-Bash. stepping */
(PID.TID 0000.0001)                   T
(PID.TID 0000.0001)     ;
(PID.TID 0000.0001) abeps =   /* Adams-Bashforth stabilizing weight */
(PID.TID 0000.0001)                 1.000000000000000E-01
(PID.TID 0000.0001)     ;
(PID.TID 0000.0001) startTime =   /* Run start time ( s ). */
(PID.TID 0000.0001)                 0.000000000000000E+00
(PID.TID 0000.0001)     ;
(PID.TID 0000.0001) endTime =   /* Integration ending time ( s ). */
(PID.TID 0000.0001)                 5.000000000000000E+04
(PID.TID 0000.0001)     ;
(PID.TID 0000.0001) pChkPtFreq =   /* Permanent restart/checkpoint file interval ( s ). */
(PID.TID 0000.0001)                 0.000000000000000E+00
(PID.TID 0000.0001)     ;
(PID.TID 0000.0001) chkPtFreq =   /* Rolling restart/checkpoint file interval ( s ). */
(PID.TID 0000.0001)                 0.000000000000000E+00
(PID.TID 0000.0001)     ;
(PID.TID 0000.0001) dumpFreq =   /* Model state write out interval ( s ). */
(PID.TID 0000.0001)                 5.000000000000000E+04
(PID.TID 0000.0001)     ;
(PID.TID 0000.0001) externForcingPeriod =   /* forcing period (s) */
(PID.TID 0000.0001)                 0.000000000000000E+00
(PID.TID 0000.0001)     ;
(PID.TID 0000.0001) externForcingCycle =   /* period of the cyle (s). */
(PID.TID 0000.0001)                 0.000000000000000E+00
(PID.TID 0000.0001)     ;
(PID.TID 0000.0001) tauThetaClimRelax =   /* relaxation time scale (s) */
(PID.TID 0000.0001)                 0.000000000000000E+00
(PID.TID 0000.0001)     ;
(PID.TID 0000.0001) tauSaltClimRelax =   /* relaxation time scale (s) */
(PID.TID 0000.0001)                 0.000000000000000E+00
(PID.TID 0000.0001)     ;
(PID.TID 0000.0001) latBandClimRelax =   /* max. Lat. where relaxation */
(PID.TID 0000.0001)                 5.000000000000000E+03
(PID.TID 0000.0001)     ;
(PID.TID 0000.0001) //
(PID.TID 0000.0001) // Gridding paramters ( PARM04 in namelist )
(PID.TID 0000.0001) //
(PID.TID 0000.0001) usingCartesianGrid =   /* Cartesian coordinates flag ( True / False ) */
(PID.TID 0000.0001)                   T
(PID.TID 0000.0001)     ;
(PID.TID 0000.0001) usingSphericalPolarGrid =   /* Spherical coordinates flag ( True / False ) */
(PID.TID 0000.0001)                   F
(PID.TID 0000.0001)     ;
(PID.TID 0000.0001) groundAtK1 =   /* Lower Boundary (ground) at the surface(k=1) ( T / F ) */
(PID.TID 0000.0001)                   F
(PID.TID 0000.0001)     ;
(PID.TID 0000.0001) Ro_SeaLevel =   /* r(1) ( units of r ) */
(PID.TID 0000.0001)                 0.000000000000000E+00
(PID.TID 0000.0001)     ;
(PID.TID 0000.0001) rkFac =   /* minus Vertical index orientation  */
(PID.TID 0000.0001)                 1.000000000000000E+00
(PID.TID 0000.0001)     ;
(PID.TID 0000.0001) horiVertRatio =   /* Ratio on units : Horiz - Vertical */
(PID.TID 0000.0001)                 1.000000000000000E+00
(PID.TID 0000.0001)     ;
(PID.TID 0000.0001) drC =   /* C spacing ( units of r ) */
(PID.TID 0000.0001)                 5.000000000000000E+00,      /* K =  1 */
(PID.TID 0000.0001)    19 @  1.000000000000000E+01              /* K =  2: 20 */
(PID.TID 0000.0001)     ;
(PID.TID 0000.0001) drF =   /* W spacing ( units of r ) */
(PID.TID 0000.0001)    20 @  1.000000000000000E+01              /* K =  1: 20 */
(PID.TID 0000.0001)     ;
(PID.TID 0000.0001) delX =   /* U spacing ( m - cartesian, degrees - spherical ) */
(PID.TID 0000.0001)    60 @  2.180327868852459E+02              /* I =  1: 60 */
(PID.TID 0000.0001)     ;
(PID.TID 0000.0001) delY =   /* V spacing ( m - cartesian, degrees - spherical ) */
(PID.TID 0000.0001)                 5.000000000000000E+03       /* J =  1 */
(PID.TID 0000.0001)     ;
(PID.TID 0000.0001) phiMin =    /* South edge (ignored - cartesian, degrees - spherical ) */
(PID.TID 0000.0001)                 0.000000000000000E+00
(PID.TID 0000.0001)     ;
(PID.TID 0000.0001) thetaMin =    /* West edge ( ignored - cartesian, degrees - spherical ) */
(PID.TID 0000.0001)                 0.000000000000000E+00
(PID.TID 0000.0001)     ;
(PID.TID 0000.0001) rSphere =    /* Radius ( ignored - cartesian, m - spherical ) */
(PID.TID 0000.0001)                 6.370000000000000E+06
(PID.TID 0000.0001)     ;
(PID.TID 0000.0001) xcoord =   /* P-point X coord ( m - cartesian, degrees - spherical ) */
(PID.TID 0000.0001)                 1.090163934426230E+02,      /* I =  1 */
(PID.TID 0000.0001)                 3.270491803278690E+02,      /* I =  2 */
(PID.TID 0000.0001)                 5.450819672131148E+02,      /* I =  3 */
(PID.TID 0000.0001)                 7.631147540983607E+02,      /* I =  4 */
(PID.TID 0000.0001)                 9.811475409836066E+02,      /* I =  5 */
(PID.TID 0000.0001)                 1.199180327868853E+03,      /* I =  6 */
(PID.TID 0000.0001)                 1.417213114754099E+03,      /* I =  7 */
(PID.TID 0000.0001)                 1.635245901639345E+03,      /* I =  8 */
(PID.TID 0000.0001)                 1.853278688524591E+03,      /* I =  9 */
(PID.TID 0000.0001)                 2.071311475409836E+03,      /* I = 10 */
(PID.TID 0000.0001)                 2.289344262295082E+03,      /* I = 11 */
(PID.TID 0000.0001)                 2.507377049180328E+03,      /* I = 12 */
(PID.TID 0000.0001)                 2.725409836065574E+03,      /* I = 13 */
(PID.TID 0000.0001)                 2.943442622950820E+03,      /* I = 14 */
(PID.TID 0000.0001)                 3.161475409836066E+03,      /* I = 15 */
(PID.TID 0000.0001)                 3.379508196721312E+03,      /* I = 16 */
(PID.TID 0000.0001)                 3.597540983606558E+03,      /* I = 17 */
(PID.TID 0000.0001)                 3.815573770491804E+03,      /* I = 18 */
(PID.TID 0000.0001)                 4.033606557377050E+03,      /* I = 19 */
(PID.TID 0000.0001)                 4.251639344262296E+03,      /* I = 20 */
(PID.TID 0000.0001)                 4.469672131147541E+03,      /* I = 21 */
(PID.TID 0000.0001)                 4.687704918032787E+03,      /* I = 22 */
(PID.TID 0000.0001)                 4.905737704918032E+03,      /* I = 23 */
(PID.TID 0000.0001)                 5.123770491803278E+03,      /* I = 24 */
(PID.TID 0000.0001)                 5.341803278688523E+03,      /* I = 25 */
(PID.TID 0000.0001)                 5.559836065573769E+03,      /* I = 26 */
(PID.TID 0000.0001)                 5.777868852459014E+03,      /* I = 27 */
(PID.TID 0000.0001)                 5.995901639344260E+03,      /* I = 28 */
(PID.TID 0000.0001)                 6.213934426229505E+03,      /* I = 29 */
(PID.TID 0000.0001)                 6.431967213114751E+03,      /* I = 30 */
(PID.TID 0000.0001)                 6.649999999999996E+03,      /* I = 31 */
(PID.TID 0000.0001)                 6.868032786885242E+03,      /* I = 32 */
(PID.TID 0000.0001)                 7.086065573770487E+03,      /* I = 33 */
(PID.TID 0000.0001)                 7.304098360655733E+03,      /* I = 34 */
(PID.TID 0000.0001)                 7.522131147540978E+03,      /* I = 35 */
(PID.TID 0000.0001)                 7.740163934426224E+03,      /* I = 36 */
(PID.TID 0000.0001)                 7.958196721311469E+03,      /* I = 37 */
(PID.TID 0000.0001)                 8.176229508196715E+03,      /* I = 38 */
(PID.TID 0000.0001)                 8.394262295081960E+03,      /* I = 39 */
(PID.TID 0000.0001)                 8.612295081967208E+03,      /* I = 40 */
(PID.TID 0000.0001)                 8.830327868852452E+03,      /* I = 41 */
(PID.TID 0000.0001)                 9.048360655737699E+03,      /* I = 42 */
(PID.TID 0000.0001)                 9.266393442622943E+03,      /* I = 43 */
(PID.TID 0000.0001)                 9.484426229508190E+03,      /* I = 44 */
(PID.TID 0000.0001)                 9.702459016393434E+03,      /* I = 45 */
(PID.TID 0000.0001)                 9.920491803278681E+03,      /* I = 46 */
(PID.TID 0000.0001)                 1.013852459016392E+04,      /* I = 47 */
(PID.TID 0000.0001)                 1.035655737704917E+04,      /* I = 48 */
(PID.TID 0000.0001)                 1.057459016393442E+04,      /* I = 49 */
(PID.TID 0000.0001)                 1.079262295081966E+04,      /* I = 50 */
(PID.TID 0000.0001)                 1.101065573770491E+04,      /* I = 51 */
(PID.TID 0000.0001)                 1.122868852459015E+04,      /* I = 52 */
(PID.TID 0000.0001)                 1.144672131147540E+04,      /* I = 53 */
(PID.TID 0000.0001)                 1.166475409836065E+04,      /* I = 54 */
(PID.TID 0000.0001)                 1.188278688524589E+04,      /* I = 55 */
(PID.TID 0000.0001)                 1.210081967213114E+04,      /* I = 56 */
(PID.TID 0000.0001)                 1.231885245901638E+04,      /* I = 57 */
(PID.TID 0000.0001)                 1.253688524590163E+04,      /* I = 58 */
(PID.TID 0000.0001)                 1.275491803278687E+04,      /* I = 59 */
(PID.TID 0000.0001)                 1.297295081967212E+04       /* I = 60 */
(PID.TID 0000.0001)     ;
(PID.TID 0000.0001) ycoord =   /* P-point Y coord ( m - cartesian, degrees - spherical ) */
(PID.TID 0000.0001)                 2.500000000000000E+03       /* J =  1 */
(PID.TID 0000.0001)     ;
(PID.TID 0000.0001) rcoord =   /* P-point R coordinate (  units of r ) */
(PID.TID 0000.0001)                -5.000000000000000E+00,      /* K =  1 */
(PID.TID 0000.0001)                -1.500000000000000E+01,      /* K =  2 */
(PID.TID 0000.0001)                -2.500000000000000E+01,      /* K =  3 */
(PID.TID 0000.0001)                -3.500000000000000E+01,      /* K =  4 */
(PID.TID 0000.0001)                -4.500000000000000E+01,      /* K =  5 */
(PID.TID 0000.0001)                -5.500000000000000E+01,      /* K =  6 */
(PID.TID 0000.0001)                -6.500000000000000E+01,      /* K =  7 */
(PID.TID 0000.0001)                -7.500000000000000E+01,      /* K =  8 */
(PID.TID 0000.0001)                -8.500000000000000E+01,      /* K =  9 */
(PID.TID 0000.0001)                -9.500000000000000E+01,      /* K = 10 */
(PID.TID 0000.0001)                -1.050000000000000E+02,      /* K = 11 */
(PID.TID 0000.0001)                -1.150000000000000E+02,      /* K = 12 */
(PID.TID 0000.0001)                -1.250000000000000E+02,      /* K = 13 */
(PID.TID 0000.0001)                -1.350000000000000E+02,      /* K = 14 */
(PID.TID 0000.0001)                -1.450000000000000E+02,      /* K = 15 */
(PID.TID 0000.0001)                -1.550000000000000E+02,      /* K = 16 */
(PID.TID 0000.0001)                -1.650000000000000E+02,      /* K = 17 */
(PID.TID 0000.0001)                -1.750000000000000E+02,      /* K = 18 */
(PID.TID 0000.0001)                -1.850000000000000E+02,      /* K = 19 */
(PID.TID 0000.0001)                -1.950000000000000E+02       /* K = 20 */
(PID.TID 0000.0001)     ;
(PID.TID 0000.0001) rF =   /* W-Interf. R coordinate (  units of r ) */
(PID.TID 0000.0001)                 0.000000000000000E+00,      /* K =  1 */
(PID.TID 0000.0001)                -1.000000000000000E+01,      /* K =  2 */
(PID.TID 0000.0001)                -2.000000000000000E+01,      /* K =  3 */
(PID.TID 0000.0001)                -3.000000000000000E+01,      /* K =  4 */
(PID.TID 0000.0001)                -4.000000000000000E+01,      /* K =  5 */
(PID.TID 0000.0001)                -5.000000000000000E+01,      /* K =  6 */
(PID.TID 0000.0001)                -6.000000000000000E+01,      /* K =  7 */
(PID.TID 0000.0001)                -7.000000000000000E+01,      /* K =  8 */
(PID.TID 0000.0001)                -8.000000000000000E+01,      /* K =  9 */
(PID.TID 0000.0001)                -9.000000000000000E+01,      /* K = 10 */
(PID.TID 0000.0001)                -1.000000000000000E+02,      /* K = 11 */
(PID.TID 0000.0001)                -1.100000000000000E+02,      /* K = 12 */
(PID.TID 0000.0001)                -1.200000000000000E+02,      /* K = 13 */
(PID.TID 0000.0001)                -1.300000000000000E+02,      /* K = 14 */
(PID.TID 0000.0001)                -1.400000000000000E+02,      /* K = 15 */
(PID.TID 0000.0001)                -1.500000000000000E+02,      /* K = 16 */
(PID.TID 0000.0001)                -1.600000000000000E+02,      /* K = 17 */
(PID.TID 0000.0001)                -1.700000000000000E+02,      /* K = 18 */
(PID.TID 0000.0001)                -1.800000000000000E+02,      /* K = 19 */
(PID.TID 0000.0001)                -1.900000000000000E+02,      /* K = 20 */
(PID.TID 0000.0001)                -2.000000000000000E+02       /* K = 21 */
(PID.TID 0000.0001)     ;
(PID.TID 0000.0001) dxF =  /* dxF(:,1,:,1) ( m - cartesian, degrees - spherical ) */
(PID.TID 0000.0001)    60 @  2.180327868852459E+02              /* I =  1: 60 */
(PID.TID 0000.0001)     ;
(PID.TID 0000.0001) dxF =  /* dxF(1,:,1,:) ( m - cartesian, degrees - spherical ) */
(PID.TID 0000.0001)                 2.180327868852459E+02       /* J =  1 */
(PID.TID 0000.0001)     ;
(PID.TID 0000.0001) dyF =  /* dyF(:,1,:,1) ( m - cartesian, degrees - spherical ) */
(PID.TID 0000.0001)    60 @  5.000000000000000E+03              /* I =  1: 60 */
(PID.TID 0000.0001)     ;
(PID.TID 0000.0001) dyF =  /* dyF(1,:,1,:) ( m - cartesian, degrees - spherical ) */
(PID.TID 0000.0001)                 5.000000000000000E+03       /* J =  1 */
(PID.TID 0000.0001)     ;
(PID.TID 0000.0001) dxG =  /* dxG(:,1,:,1) ( m - cartesian, degrees - spherical ) */
(PID.TID 0000.0001)    60 @  2.180327868852459E+02              /* I =  1: 60 */
(PID.TID 0000.0001)     ;
(PID.TID 0000.0001) dxG =  /* dxG(1,:,1,:) ( m - cartesian, degrees - spherical ) */
(PID.TID 0000.0001)                 2.180327868852459E+02       /* J =  1 */
(PID.TID 0000.0001)     ;
(PID.TID 0000.0001) dyG =  /* dyG(:,1,:,1) ( m - cartesian, degrees - spherical ) */
(PID.TID 0000.0001)    60 @  5.000000000000000E+03              /* I =  1: 60 */
(PID.TID 0000.0001)     ;
(PID.TID 0000.0001) dyG =  /* dyG(1,:,1,:) ( m - cartesian, degrees - spherical ) */
(PID.TID 0000.0001)                 5.000000000000000E+03       /* J =  1 */
(PID.TID 0000.0001)     ;
(PID.TID 0000.0001) dxC =  /* dxC(:,1,:,1) ( m - cartesian, degrees - spherical ) */
(PID.TID 0000.0001)    60 @  2.180327868852459E+02              /* I =  1: 60 */
(PID.TID 0000.0001)     ;
(PID.TID 0000.0001) dxC =  /* dxC(1,:,1,:) ( m - cartesian, degrees - spherical ) */
(PID.TID 0000.0001)                 2.180327868852459E+02       /* J =  1 */
(PID.TID 0000.0001)     ;
(PID.TID 0000.0001) dyC =  /* dyC(:,1,:,1) ( m - cartesian, degrees - spherical ) */
(PID.TID 0000.0001)    60 @  5.000000000000000E+03              /* I =  1: 60 */
(PID.TID 0000.0001)     ;
(PID.TID 0000.0001) dyC =  /* dyC(1,:,1,:) ( m - cartesian, degrees - spherical ) */
(PID.TID 0000.0001)                 5.000000000000000E+03       /* J =  1 */
(PID.TID 0000.0001)     ;
(PID.TID 0000.0001) dxV =  /* dxV(:,1,:,1) ( m - cartesian, degrees - spherical ) */
(PID.TID 0000.0001)    60 @  2.180327868852459E+02              /* I =  1: 60 */
(PID.TID 0000.0001)     ;
(PID.TID 0000.0001) dxV =  /* dxV(1,:,1,:) ( m - cartesian, degrees - spherical ) */
(PID.TID 0000.0001)                 2.180327868852459E+02       /* J =  1 */
(PID.TID 0000.0001)     ;
(PID.TID 0000.0001) dyU =  /* dyU(:,1,:,1) ( m - cartesian, degrees - spherical ) */
(PID.TID 0000.0001)    60 @  5.000000000000000E+03              /* I =  1: 60 */
(PID.TID 0000.0001)     ;
(PID.TID 0000.0001) dyU =  /* dyU(1,:,1,:) ( m - cartesian, degrees - spherical ) */
(PID.TID 0000.0001)                 5.000000000000000E+03       /* J =  1 */
(PID.TID 0000.0001)     ;
(PID.TID 0000.0001) rA =  /* rA(:,1,:,1) ( m - cartesian, degrees - spherical ) */
(PID.TID 0000.0001)    60 @  1.090163934426229E+06              /* I =  1: 60 */
(PID.TID 0000.0001)     ;
(PID.TID 0000.0001) rA =  /* rA(1,:,1,:) ( m - cartesian, degrees - spherical ) */
(PID.TID 0000.0001)                 1.090163934426229E+06       /* J =  1 */
(PID.TID 0000.0001)     ;
(PID.TID 0000.0001) rAw =  /* rAw(:,1,:,1) ( m - cartesian, degrees - spherical ) */
(PID.TID 0000.0001)    60 @  1.090163934426229E+06              /* I =  1: 60 */
(PID.TID 0000.0001)     ;
(PID.TID 0000.0001) rAw =  /* rAw(1,:,1,:) ( m - cartesian, degrees - spherical ) */
(PID.TID 0000.0001)                 1.090163934426229E+06       /* J =  1 */
(PID.TID 0000.0001)     ;
(PID.TID 0000.0001) rAs =  /* rAs(:,1,:,1) ( m - cartesian, degrees - spherical ) */
(PID.TID 0000.0001)    60 @  1.090163934426229E+06              /* I =  1: 60 */
(PID.TID 0000.0001)     ;
(PID.TID 0000.0001) rAs =  /* rAs(1,:,1,:) ( m - cartesian, degrees - spherical ) */
(PID.TID 0000.0001)                 1.090163934426229E+06       /* J =  1 */
(PID.TID 0000.0001)     ;
(PID.TID 0000.0001) 
(PID.TID 0000.0001)  MDSREADFIELD: opening global file: T.init
(PID.TID 0000.0001) // =======================================================
(PID.TID 0000.0001) // Field Initial Temperature at iteration          1
(PID.TID 0000.0001) // CMIN =          4.841997961264016E-02
(PID.TID 0000.0001) // CMAX =          4.841997961264016E-02
(PID.TID 0000.0001) // CINT =          0.000000000000000E+00
(PID.TID 0000.0001) // SYMBOLS (CMIN->CMAX): -abcdefghijklmnopqrstuvwxyz+
(PID.TID 0000.0001) //                  0.0: .
(PID.TID 0000.0001) // RANGE I (Lo:Hi:Step):(   1:  60:   1)
(PID.TID 0000.0001) // RANGE J (Lo:Hi:Step):(   1:   1:  -1)
(PID.TID 0000.0001) // RANGE K (Lo:Hi:Step):(   1:   1:   1)
(PID.TID 0000.0001) // =======================================================
(PID.TID 0000.0001) K =   1
(PID.TID 0000.0001)                I=10      I=20      I=30      I=40      I=50      I=60
(PID.TID 0000.0001) |--J--|123456789|123456789|123456789|123456789|123456789|123456789|
(PID.TID 0000.0001)      1 -----------------------------------------------------------.
(PID.TID 0000.0001) // =======================================================
(PID.TID 0000.0001) // END OF FIELD                                          =
(PID.TID 0000.0001) // =======================================================
(PID.TID 0000.0001) 
(PID.TID 0000.0001) // =======================================================
(PID.TID 0000.0001) // Field Initial Salinity at iteration          1
(PID.TID 0000.0001) // CMIN =          3.500000000000000E+01
(PID.TID 0000.0001) // CMAX =          3.500000000000000E+01
(PID.TID 0000.0001) // CINT =          0.000000000000000E+00
(PID.TID 0000.0001) // SYMBOLS (CMIN->CMAX): -abcdefghijklmnopqrstuvwxyz+
(PID.TID 0000.0001) //                  0.0: .
(PID.TID 0000.0001) // RANGE I (Lo:Hi:Step):(   1:  60:   1)
(PID.TID 0000.0001) // RANGE J (Lo:Hi:Step):(   1:   1:  -1)
(PID.TID 0000.0001) // RANGE K (Lo:Hi:Step):(   1:   1:   1)
(PID.TID 0000.0001) // =======================================================
(PID.TID 0000.0001) K =   1
(PID.TID 0000.0001)                I=10      I=20      I=30      I=40      I=50      I=60
(PID.TID 0000.0001) |--J--|123456789|123456789|123456789|123456789|123456789|123456789|
(PID.TID 0000.0001)      1 -----------------------------------------------------------.
(PID.TID 0000.0001) // =======================================================
(PID.TID 0000.0001) // END OF FIELD                                          =
(PID.TID 0000.0001) // =======================================================
(PID.TID 0000.0001) 
(PID.TID 0000.0001) Start initial hydrostatic pressure computation
(PID.TID 0000.0001) Pressure is predetermined for buoyancyRelation OCEANIC
(PID.TID 0000.0001) 
(PID.TID 0000.0001) // =======================================================
(PID.TID 0000.0001) // Model current state
(PID.TID 0000.0001) // =======================================================
(PID.TID 0000.0001) 
(PID.TID 0000.0001) // =======================================================
(PID.TID 0000.0001) // Begin MONITOR dynamic field statistics
(PID.TID 0000.0001) // =======================================================
(PID.TID 0000.0001) %MON time_tsnumber                =                     0
(PID.TID 0000.0001) %MON time_secondsf                =   0.0000000000000E+00
(PID.TID 0000.0001) %MON dynstat_eta_max              =   0.0000000000000E+00
(PID.TID 0000.0001) %MON dynstat_eta_min              =   0.0000000000000E+00
(PID.TID 0000.0001) %MON dynstat_eta_mean             =   0.0000000000000E+00
(PID.TID 0000.0001) %MON dynstat_eta_sd               =   0.0000000000000E+00
(PID.TID 0000.0001) %MON dynstat_eta_del2             =   0.0000000000000E+00
(PID.TID 0000.0001) %MON dynstat_uvel_max             =   0.0000000000000E+00
(PID.TID 0000.0001) %MON dynstat_uvel_min             =   0.0000000000000E+00
(PID.TID 0000.0001) %MON dynstat_uvel_mean            =   0.0000000000000E+00
(PID.TID 0000.0001) %MON dynstat_uvel_sd              =   0.0000000000000E+00
(PID.TID 0000.0001) %MON dynstat_uvel_del2            =   0.0000000000000E+00
(PID.TID 0000.0001) %MON dynstat_vvel_max             =   0.0000000000000E+00
(PID.TID 0000.0001) %MON dynstat_vvel_min             =   0.0000000000000E+00
(PID.TID 0000.0001) %MON dynstat_vvel_mean            =   0.0000000000000E+00
(PID.TID 0000.0001) %MON dynstat_vvel_sd              =   0.0000000000000E+00
(PID.TID 0000.0001) %MON dynstat_vvel_del2            =   0.0000000000000E+00
(PID.TID 0000.0001) %MON dynstat_wvel_max             =   0.0000000000000E+00
(PID.TID 0000.0001) %MON dynstat_wvel_min             =   0.0000000000000E+00
(PID.TID 0000.0001) %MON dynstat_wvel_mean            =   0.0000000000000E+00
(PID.TID 0000.0001) %MON dynstat_wvel_sd              =   0.0000000000000E+00
(PID.TID 0000.0001) %MON dynstat_wvel_del2            =   0.0000000000000E+00
(PID.TID 0000.0001) %MON dynstat_theta_max            =   4.8420000000000E-02
(PID.TID 0000.0001) %MON dynstat_theta_min            =  -4.8420000000000E-02
(PID.TID 0000.0001) %MON dynstat_theta_mean           =   1.3984481732139E-02
(PID.TID 0000.0001) %MON dynstat_theta_sd             =   2.7839130810646E-02
(PID.TID 0000.0001) %MON dynstat_theta_del2           =   2.9272547939936E-10
(PID.TID 0000.0001) %MON dynstat_salt_max             =   3.5000000000000E+01
(PID.TID 0000.0001) %MON dynstat_salt_min             =   0.0000000000000E+00
(PID.TID 0000.0001) %MON dynstat_salt_mean            =   3.3847052152665E+01
(PID.TID 0000.0001) %MON dynstat_salt_sd              =   6.2469101096521E+00
(PID.TID 0000.0001) %MON dynstat_salt_del2            =   5.6726094003241E-01
(PID.TID 0000.0001) %MON advcfl_uvel_max              =   0.0000000000000E+00
(PID.TID 0000.0001) %MON advcfl_vvel_max              =   0.0000000000000E+00
(PID.TID 0000.0001) %MON advcfl_wvel_max              =   0.0000000000000E+00
(PID.TID 0000.0001) %MON advcfl_W_hf_max              =   0.0000000000000E+00
(PID.TID 0000.0001) %MON pe_b_mean                    =   0.0000000000000E+00
(PID.TID 0000.0001) %MON ke_max                       =   0.0000000000000E+00
(PID.TID 0000.0001) %MON ke_mean                      =   0.0000000000000E+00
(PID.TID 0000.0001) %MON ke_vol                       =   6.6188141628594E+09
(PID.TID 0000.0001) %MON vort_r_min                   =   0.0000000000000E+00
(PID.TID 0000.0001) %MON vort_r_max                   =   0.0000000000000E+00
(PID.TID 0000.0001) %MON vort_a_mean                  =   0.0000000000000E+00
(PID.TID 0000.0001) %MON vort_a_sd                    =   0.0000000000000E+00
(PID.TID 0000.0001) %MON vort_p_mean                  =   0.0000000000000E+00
(PID.TID 0000.0001) %MON vort_p_sd                    =   0.0000000000000E+00
(PID.TID 0000.0001) %MON surfExpan_theta_mean         =   0.0000000000000E+00
(PID.TID 0000.0001) %MON surfExpan_salt_mean          =   0.0000000000000E+00
(PID.TID 0000.0001) // =======================================================
(PID.TID 0000.0001) // End MONITOR dynamic field statistics
(PID.TID 0000.0001) // =======================================================
 cg2d: Sum(rhs),rhsMax =   1.00000000000000E+00  1.21032510061595E-20
(PID.TID 0000.0001)                    cg2d_init_res =    1.00000000000000E+00
(PID.TID 0000.0001)                       cg2d_iters =    58
(PID.TID 0000.0001)                         cg2d_res =    5.46624249388655E-17
 cg2d: Sum(rhs),rhsMax =  -3.60502524599565E-13  1.07634058188289E-06
 cg2d: Sum(rhs),rhsMax =  -1.94151369514815E-14  7.54886693748753E-05
 cg2d: Sum(rhs),rhsMax =  -2.46558399104270E-14  9.21591535075247E-05
 cg2d: Sum(rhs),rhsMax =  -1.22424924473181E-14  1.87619597705662E-04
(PID.TID 0000.0001) // =======================================================
(PID.TID 0000.0001) // Begin MONITOR dynamic field statistics
(PID.TID 0000.0001) // =======================================================
(PID.TID 0000.0001) %MON time_tsnumber                =                     5
(PID.TID 0000.0001) %MON time_secondsf                =   2.5000000000000E+03
(PID.TID 0000.0001) %MON dynstat_eta_max              =   1.8838689085456E-05
(PID.TID 0000.0001) %MON dynstat_eta_min              =  -7.0430999056314E-07
(PID.TID 0000.0001) %MON dynstat_eta_mean             =   7.6024104912469E-18
(PID.TID 0000.0001) %MON dynstat_eta_sd               =   2.4811881881251E-06
(PID.TID 0000.0001) %MON dynstat_eta_del2             =   3.2213351752277E-07
(PID.TID 0000.0001) %MON dynstat_uvel_max             =   8.0150165287875E-03
(PID.TID 0000.0001) %MON dynstat_uvel_min             =  -8.0150165287875E-03
(PID.TID 0000.0001) %MON dynstat_uvel_mean            =  -2.1302863361258E-08
(PID.TID 0000.0001) %MON dynstat_uvel_sd              =   1.0524319999168E-03
(PID.TID 0000.0001) %MON dynstat_uvel_del2            =   7.9323456744431E-05
(PID.TID 0000.0001) %MON dynstat_vvel_max             =   0.0000000000000E+00
(PID.TID 0000.0001) %MON dynstat_vvel_min             =   0.0000000000000E+00
(PID.TID 0000.0001) %MON dynstat_vvel_mean            =   0.0000000000000E+00
(PID.TID 0000.0001) %MON dynstat_vvel_sd              =   0.0000000000000E+00
(PID.TID 0000.0001) %MON dynstat_vvel_del2            =   0.0000000000000E+00
(PID.TID 0000.0001) %MON dynstat_wvel_max             =   2.3499042947512E-03
(PID.TID 0000.0001) %MON dynstat_wvel_min             =  -2.1666602986529E-03
(PID.TID 0000.0001) %MON dynstat_wvel_mean            =  -1.6647825383258E-20
(PID.TID 0000.0001) %MON dynstat_wvel_sd              =   4.1768560235115E-04
(PID.TID 0000.0001) %MON dynstat_wvel_del2            =   6.6962012505239E-05
(PID.TID 0000.0001) %MON dynstat_theta_max            =   4.8751308589830E-02
(PID.TID 0000.0001) %MON dynstat_theta_min            =  -4.8294115600338E-02
(PID.TID 0000.0001) %MON dynstat_theta_mean           =   1.4104583444709E-02
(PID.TID 0000.0001) %MON dynstat_theta_sd             =   2.7763973874816E-02
(PID.TID 0000.0001) %MON dynstat_theta_del2           =   3.2102147848860E-05
(PID.TID 0000.0001) %MON dynstat_salt_max             =   3.5000000000000E+01
(PID.TID 0000.0001) %MON dynstat_salt_min             =   0.0000000000000E+00
(PID.TID 0000.0001) %MON dynstat_salt_mean            =   3.3847052152665E+01
(PID.TID 0000.0001) %MON dynstat_salt_sd              =   6.2469101096520E+00
(PID.TID 0000.0001) %MON dynstat_salt_del2            =   5.6726094003241E-01
(PID.TID 0000.0001) %MON advcfl_uvel_max              =   1.8380301062257E-02
(PID.TID 0000.0001) %MON advcfl_vvel_max              =   0.0000000000000E+00
(PID.TID 0000.0001) %MON advcfl_wvel_max              =   1.1749521473756E-01
(PID.TID 0000.0001) %MON advcfl_W_hf_max              =   1.1749521473756E-01
(PID.TID 0000.0001) %MON pe_b_mean                    =   2.9344185279480E-13
(PID.TID 0000.0001) %MON ke_max                       =   1.6167187656620E-05
(PID.TID 0000.0001) %MON ke_mean                      =   5.3556341203711E-07
(PID.TID 0000.0001) %MON ke_vol                       =   6.6188141628594E+09
(PID.TID 0000.0001) %MON vort_r_min                   =   0.0000000000000E+00
(PID.TID 0000.0001) %MON vort_r_max                   =   0.0000000000000E+00
(PID.TID 0000.0001) %MON vort_a_mean                  =   0.0000000000000E+00
(PID.TID 0000.0001) %MON vort_a_sd                    =   0.0000000000000E+00
(PID.TID 0000.0001) %MON vort_p_mean                  =   0.0000000000000E+00
(PID.TID 0000.0001) %MON vort_p_sd                    =   0.0000000000000E+00
(PID.TID 0000.0001) %MON surfExpan_theta_mean         =   1.2266535716157E-13
(PID.TID 0000.0001) %MON surfExpan_salt_mean          =   1.6021675461775E-19
(PID.TID 0000.0001) // =======================================================
(PID.TID 0000.0001) // End MONITOR dynamic field statistics
(PID.TID 0000.0001) // =======================================================
 cg2d: Sum(rhs),rhsMax =  -1.33036138190239E-14  2.18318804271978E-04
(PID.TID 0000.0001)                    cg2d_init_res =    1.80512690578777E-01
(PID.TID 0000.0001)                       cg2d_iters =    58
(PID.TID 0000.0001)                         cg2d_res =    2.50898611291108E-19
 cg2d: Sum(rhs),rhsMax =  -1.39710884869545E-14  3.19782805326442E-04
 cg2d: Sum(rhs),rhsMax =  -1.49332653989927E-14  3.50014219843710E-04
 cg2d: Sum(rhs),rhsMax =  -1.26101304221127E-14  4.42716694816177E-04
 cg2d: Sum(rhs),rhsMax =  -1.84052636141834E-14  4.59164943924387E-04
(PID.TID 0000.0001) // =======================================================
(PID.TID 0000.0001) // Begin MONITOR dynamic field statistics
(PID.TID 0000.0001) // =======================================================
(PID.TID 0000.0001) %MON time_tsnumber                =                    10
(PID.TID 0000.0001) %MON time_secondsf                =   5.0000000000000E+03
(PID.TID 0000.0001) %MON dynstat_eta_max              =   5.6399027008088E-05
(PID.TID 0000.0001) %MON dynstat_eta_min              =  -1.5266432575056E-06
(PID.TID 0000.0001) %MON dynstat_eta_mean             =   3.2927284502515E-17
(PID.TID 0000.0001) %MON dynstat_eta_sd               =   7.5402177439088E-06
(PID.TID 0000.0001) %MON dynstat_eta_del2             =   8.7528850641431E-07
(PID.TID 0000.0001) %MON dynstat_uvel_max             =   1.5044623392047E-02
(PID.TID 0000.0001) %MON dynstat_uvel_min             =  -1.5044623392047E-02
(PID.TID 0000.0001) %MON dynstat_uvel_mean            =  -2.4951840625571E-08
(PID.TID 0000.0001) %MON dynstat_uvel_sd              =   2.0643256049420E-03
(PID.TID 0000.0001) %MON dynstat_uvel_del2            =   1.1145793345250E-04
(PID.TID 0000.0001) %MON dynstat_vvel_max             =   0.0000000000000E+00
(PID.TID 0000.0001) %MON dynstat_vvel_min             =   0.0000000000000E+00
(PID.TID 0000.0001) %MON dynstat_vvel_mean            =   0.0000000000000E+00
(PID.TID 0000.0001) %MON dynstat_vvel_sd              =   0.0000000000000E+00
(PID.TID 0000.0001) %MON dynstat_vvel_del2            =   0.0000000000000E+00
(PID.TID 0000.0001) %MON dynstat_wvel_max             =   4.4108985920249E-03
(PID.TID 0000.0001) %MON dynstat_wvel_min             =  -3.0321641043089E-03
(PID.TID 0000.0001) %MON dynstat_wvel_mean            =   1.4795251314730E-20
(PID.TID 0000.0001) %MON dynstat_wvel_sd              =   7.1721363097602E-04
(PID.TID 0000.0001) %MON dynstat_wvel_del2            =   9.5119473066052E-05
(PID.TID 0000.0001) %MON dynstat_theta_max            =   4.9041884302128E-02
(PID.TID 0000.0001) %MON dynstat_theta_min            =  -4.8171354040724E-02
(PID.TID 0000.0001) %MON dynstat_theta_mean           =   1.4274714644170E-02
(PID.TID 0000.0001) %MON dynstat_theta_sd             =   2.7676197659039E-02
(PID.TID 0000.0001) %MON dynstat_theta_del2           =   4.9483496699873E-05
(PID.TID 0000.0001) %MON dynstat_salt_max             =   3.5000000000000E+01
(PID.TID 0000.0001) %MON dynstat_salt_min             =   0.0000000000000E+00
(PID.TID 0000.0001) %MON dynstat_salt_mean            =   3.3847052152665E+01
(PID.TID 0000.0001) %MON dynstat_salt_sd              =   6.2469101096520E+00
(PID.TID 0000.0001) %MON dynstat_salt_del2            =   5.6726094003241E-01
(PID.TID 0000.0001) %MON advcfl_uvel_max              =   3.4500828079506E-02
(PID.TID 0000.0001) %MON advcfl_vvel_max              =   0.0000000000000E+00
(PID.TID 0000.0001) %MON advcfl_wvel_max              =   2.2054492960125E-01
(PID.TID 0000.0001) %MON advcfl_W_hf_max              =   2.2054492960125E-01
(PID.TID 0000.0001) %MON pe_b_mean                    =   2.7100070523036E-12
(PID.TID 0000.0001) %MON ke_max                       =   6.2418922137623E-05
(PID.TID 0000.0001) %MON ke_mean                      =   2.0605312399552E-06
(PID.TID 0000.0001) %MON ke_vol                       =   6.6188141628594E+09
(PID.TID 0000.0001) %MON vort_r_min                   =   0.0000000000000E+00
(PID.TID 0000.0001) %MON vort_r_max                   =   0.0000000000000E+00
(PID.TID 0000.0001) %MON vort_a_mean                  =   0.0000000000000E+00
(PID.TID 0000.0001) %MON vort_a_sd                    =   0.0000000000000E+00
(PID.TID 0000.0001) %MON vort_p_mean                  =   0.0000000000000E+00
(PID.TID 0000.0001) %MON vort_p_sd                    =   0.0000000000000E+00
(PID.TID 0000.0001) %MON surfExpan_theta_mean         =  -5.6700727650835E-13
(PID.TID 0000.0001) %MON surfExpan_salt_mean          =   4.7385956278117E-19
(PID.TID 0000.0001) // =======================================================
(PID.TID 0000.0001) // End MONITOR dynamic field statistics
(PID.TID 0000.0001) // =======================================================
 cg2d: Sum(rhs),rhsMax =  -1.79408722951371E-14  5.31285549580439E-04
(PID.TID 0000.0001)                    cg2d_init_res =    1.63978143883451E-01
(PID.TID 0000.0001)                       cg2d_iters =    58
(PID.TID 0000.0001)                         cg2d_res =    8.94791749424853E-20
 cg2d: Sum(rhs),rhsMax =  -1.95941963283992E-14  5.24996738324804E-04
 cg2d: Sum(rhs),rhsMax =  -1.89019315472013E-14  5.70212072496333E-04
 cg2d: Sum(rhs),rhsMax =  -1.88581433319601E-14  5.38368110867678E-04
 cg2d: Sum(rhs),rhsMax =  -2.08178946629022E-14  5.56671346386664E-04
(PID.TID 0000.0001) // =======================================================
(PID.TID 0000.0001) // Begin MONITOR dynamic field statistics
(PID.TID 0000.0001) // =======================================================
(PID.TID 0000.0001) %MON time_tsnumber                =                    15
(PID.TID 0000.0001) %MON time_secondsf                =   7.5000000000000E+03
(PID.TID 0000.0001) %MON dynstat_eta_max              =   9.4236610522410E-05
(PID.TID 0000.0001) %MON dynstat_eta_min              =  -3.2392787647169E-06
(PID.TID 0000.0001) %MON dynstat_eta_mean             =   4.9557901879173E-17
(PID.TID 0000.0001) %MON dynstat_eta_sd               =   1.3429892775118E-05
(PID.TID 0000.0001) %MON dynstat_eta_del2             =   1.2810254104467E-06
(PID.TID 0000.0001) %MON dynstat_uvel_max             =   2.0224562540773E-02
(PID.TID 0000.0001) %MON dynstat_uvel_min             =  -2.0224562540773E-02
(PID.TID 0000.0001) %MON dynstat_uvel_mean            =  -3.7273760728747E-08
(PID.TID 0000.0001) %MON dynstat_uvel_sd              =   3.0889812337668E-03
(PID.TID 0000.0001) %MON dynstat_uvel_del2            =   9.5879331902790E-05
(PID.TID 0000.0001) %MON dynstat_vvel_max             =   0.0000000000000E+00
(PID.TID 0000.0001) %MON dynstat_vvel_min             =   0.0000000000000E+00
(PID.TID 0000.0001) %MON dynstat_vvel_mean            =   0.0000000000000E+00
(PID.TID 0000.0001) %MON dynstat_vvel_sd              =   0.0000000000000E+00
(PID.TID 0000.0001) %MON dynstat_vvel_del2            =   0.0000000000000E+00
(PID.TID 0000.0001) %MON dynstat_wvel_max             =   5.9295930586453E-03
(PID.TID 0000.0001) %MON dynstat_wvel_min             =  -2.5843099540541E-03
(PID.TID 0000.0001) %MON dynstat_wvel_mean            =   2.3428963643044E-20
(PID.TID 0000.0001) %MON dynstat_wvel_sd              =   9.0928130746266E-04
(PID.TID 0000.0001) %MON dynstat_wvel_del2            =   1.0524125506192E-04
(PID.TID 0000.0001) %MON dynstat_theta_max            =   4.9256002180563E-02
(PID.TID 0000.0001) %MON dynstat_theta_min            =  -4.8051473518898E-02
(PID.TID 0000.0001) %MON dynstat_theta_mean           =   1.4472192453959E-02
(PID.TID 0000.0001) %MON dynstat_theta_sd             =   2.7584718696434E-02
(PID.TID 0000.0001) %MON dynstat_theta_del2           =   6.3960206394634E-05
(PID.TID 0000.0001) %MON dynstat_salt_max             =   3.5000000000000E+01
(PID.TID 0000.0001) %MON dynstat_salt_min             =   0.0000000000000E+00
(PID.TID 0000.0001) %MON dynstat_salt_mean            =   3.3847052152665E+01
(PID.TID 0000.0001) %MON dynstat_salt_sd              =   6.2469101096520E+00
(PID.TID 0000.0001) %MON dynstat_salt_del2            =   5.6726094003241E-01
(PID.TID 0000.0001) %MON advcfl_uvel_max              =   4.6379635901772E-02
(PID.TID 0000.0001) %MON advcfl_vvel_max              =   0.0000000000000E+00
(PID.TID 0000.0001) %MON advcfl_wvel_max              =   2.9647965293226E-01
(PID.TID 0000.0001) %MON advcfl_W_hf_max              =   2.9647965293226E-01
(PID.TID 0000.0001) %MON pe_b_mean                    =   8.5970160321585E-12
(PID.TID 0000.0001) %MON ke_max                       =   1.3729536886650E-04
(PID.TID 0000.0001) %MON ke_mean                      =   4.6137424363250E-06
(PID.TID 0000.0001) %MON ke_vol                       =   6.6188141628594E+09
(PID.TID 0000.0001) %MON vort_r_min                   =   0.0000000000000E+00
(PID.TID 0000.0001) %MON vort_r_max                   =   0.0000000000000E+00
(PID.TID 0000.0001) %MON vort_a_mean                  =   0.0000000000000E+00
(PID.TID 0000.0001) %MON vort_a_sd                    =   0.0000000000000E+00
(PID.TID 0000.0001) %MON vort_p_mean                  =   0.0000000000000E+00
(PID.TID 0000.0001) %MON vort_p_sd                    =   0.0000000000000E+00
(PID.TID 0000.0001) %MON surfExpan_theta_mean         =   1.7999091635722E-12
(PID.TID 0000.0001) %MON surfExpan_salt_mean          =   3.5794861529045E-19
(PID.TID 0000.0001) // =======================================================
(PID.TID 0000.0001) // End MONITOR dynamic field statistics
(PID.TID 0000.0001) // =======================================================
 cg2d: Sum(rhs),rhsMax =  -2.90882828552787E-14  5.02430297230914E-04
(PID.TID 0000.0001)                    cg2d_init_res =    2.48273127610433E-01
(PID.TID 0000.0001)                       cg2d_iters =    58
(PID.TID 0000.0001)                         cg2d_res =    5.57260283936298E-19
 cg2d: Sum(rhs),rhsMax =  -3.23288284705993E-14  4.99101069058287E-04
 cg2d: Sum(rhs),rhsMax =  -4.14149153204124E-14  4.29800746578314E-04
 cg2d: Sum(rhs),rhsMax =  -4.80356043570246E-14  4.13045463395363E-04
 cg2d: Sum(rhs),rhsMax =  -7.15365673599130E-14  3.37550625782712E-04
(PID.TID 0000.0001) // =======================================================
(PID.TID 0000.0001) // Begin MONITOR dynamic field statistics
(PID.TID 0000.0001) // =======================================================
(PID.TID 0000.0001) %MON time_tsnumber                =                    20
(PID.TID 0000.0001) %MON time_secondsf                =   1.0000000000000E+04
(PID.TID 0000.0001) %MON dynstat_eta_max              =   1.1182879653349E-04
(PID.TID 0000.0001) %MON dynstat_eta_min              =  -4.7888533290109E-06
(PID.TID 0000.0001) %MON dynstat_eta_mean             =   1.0946302142919E-16
(PID.TID 0000.0001) %MON dynstat_eta_sd               =   1.8386783569034E-05
(PID.TID 0000.0001) %MON dynstat_eta_del2             =   1.4008375615424E-06
(PID.TID 0000.0001) %MON dynstat_uvel_max             =   2.2917984121235E-02
(PID.TID 0000.0001) %MON dynstat_uvel_min             =  -2.2917984121235E-02
(PID.TID 0000.0001) %MON dynstat_uvel_mean            =  -2.7462650082035E-08
(PID.TID 0000.0001) %MON dynstat_uvel_sd              =   4.0273407192776E-03
(PID.TID 0000.0001) %MON dynstat_uvel_del2            =   1.0903388202252E-04
(PID.TID 0000.0001) %MON dynstat_vvel_max             =   0.0000000000000E+00
(PID.TID 0000.0001) %MON dynstat_vvel_min             =   0.0000000000000E+00
(PID.TID 0000.0001) %MON dynstat_vvel_mean            =   0.0000000000000E+00
(PID.TID 0000.0001) %MON dynstat_vvel_sd              =   0.0000000000000E+00
(PID.TID 0000.0001) %MON dynstat_vvel_del2            =   0.0000000000000E+00
(PID.TID 0000.0001) %MON dynstat_wvel_max             =   6.7192711481128E-03
(PID.TID 0000.0001) %MON dynstat_wvel_min             =  -2.9013866890775E-03
(PID.TID 0000.0001) %MON dynstat_wvel_mean            =  -8.0178837759922E-21
(PID.TID 0000.0001) %MON dynstat_wvel_sd              =   1.0050191601109E-03
(PID.TID 0000.0001) %MON dynstat_wvel_del2            =   9.7490249946473E-05
(PID.TID 0000.0001) %MON dynstat_theta_max            =   4.9367337410184E-02
(PID.TID 0000.0001) %MON dynstat_theta_min            =  -4.7934334555807E-02
(PID.TID 0000.0001) %MON dynstat_theta_mean           =   1.4672639466557E-02
(PID.TID 0000.0001) %MON dynstat_theta_sd             =   2.7494396749582E-02
(PID.TID 0000.0001) %MON dynstat_theta_del2           =   6.1747896400981E-05
(PID.TID 0000.0001) %MON dynstat_salt_max             =   3.5000000000000E+01
(PID.TID 0000.0001) %MON dynstat_salt_min             =   0.0000000000000E+00
(PID.TID 0000.0001) %MON dynstat_salt_mean            =   3.3847052152665E+01
(PID.TID 0000.0001) %MON dynstat_salt_sd              =   6.2469101096520E+00
(PID.TID 0000.0001) %MON dynstat_salt_del2            =   5.6726094003241E-01
(PID.TID 0000.0001) %MON advcfl_uvel_max              =   5.2556279375764E-02
(PID.TID 0000.0001) %MON advcfl_vvel_max              =   0.0000000000000E+00
(PID.TID 0000.0001) %MON advcfl_wvel_max              =   3.3596355740564E-01
(PID.TID 0000.0001) %MON advcfl_W_hf_max              =   3.3596355740564E-01
(PID.TID 0000.0001) %MON pe_b_mean                    =   1.6114401277688E-11
(PID.TID 0000.0001) %MON ke_max                       =   2.1957134513114E-04
(PID.TID 0000.0001) %MON ke_mean                      =   7.8425906020700E-06
(PID.TID 0000.0001) %MON ke_vol                       =   6.6188141628594E+09
(PID.TID 0000.0001) %MON vort_r_min                   =   0.0000000000000E+00
(PID.TID 0000.0001) %MON vort_r_max                   =   0.0000000000000E+00
(PID.TID 0000.0001) %MON vort_a_mean                  =   0.0000000000000E+00
(PID.TID 0000.0001) %MON vort_a_sd                    =   0.0000000000000E+00
(PID.TID 0000.0001) %MON vort_p_mean                  =   0.0000000000000E+00
(PID.TID 0000.0001) %MON vort_p_sd                    =   0.0000000000000E+00
(PID.TID 0000.0001) %MON surfExpan_theta_mean         =  -1.9404285761641E-12
(PID.TID 0000.0001) %MON surfExpan_salt_mean          =   4.9297083925530E-19
(PID.TID 0000.0001) // =======================================================
(PID.TID 0000.0001) // End MONITOR dynamic field statistics
(PID.TID 0000.0001) // =======================================================
 cg2d: Sum(rhs),rhsMax =  -8.62445490999904E-14  3.15794230596562E-04
(PID.TID 0000.0001)                    cg2d_init_res =    1.82904418273822E-01
(PID.TID 0000.0001)                       cg2d_iters =    58
(PID.TID 0000.0001)                         cg2d_res =    1.86175268729405E-19
 cg2d: Sum(rhs),rhsMax =  -9.74172050536085E-14  2.89168296493437E-04
 cg2d: Sum(rhs),rhsMax =  -1.02938436854355E-13  2.90431798564170E-04
 cg2d: Sum(rhs),rhsMax =  -9.59295577002139E-14  3.41072694189094E-04
 cg2d: Sum(rhs),rhsMax =  -1.07334043183364E-13  3.17878452873863E-04
(PID.TID 0000.0001) // =======================================================
(PID.TID 0000.0001) // Begin MONITOR dynamic field statistics
(PID.TID 0000.0001) // =======================================================
(PID.TID 0000.0001) %MON time_tsnumber                =                    25
(PID.TID 0000.0001) %MON time_secondsf                =   1.2500000000000E+04
(PID.TID 0000.0001) %MON dynstat_eta_max              =   1.1828616548578E-04
(PID.TID 0000.0001) %MON dynstat_eta_min              =  -6.3665385986305E-06
(PID.TID 0000.0001) %MON dynstat_eta_mean             =   1.5251966776618E-16
(PID.TID 0000.0001) %MON dynstat_eta_sd               =   2.2527879077016E-05
(PID.TID 0000.0001) %MON dynstat_eta_del2             =   1.3982742685321E-06
(PID.TID 0000.0001) %MON dynstat_uvel_max             =   2.2793744255040E-02
(PID.TID 0000.0001) %MON dynstat_uvel_min             =  -2.2844529130039E-02
(PID.TID 0000.0001) %MON dynstat_uvel_mean            =  -4.7938943642236E-08
(PID.TID 0000.0001) %MON dynstat_uvel_sd              =   4.7329870738802E-03
(PID.TID 0000.0001) %MON dynstat_uvel_del2            =   1.0744395060232E-04
(PID.TID 0000.0001) %MON dynstat_vvel_max             =   0.0000000000000E+00
(PID.TID 0000.0001) %MON dynstat_vvel_min             =   0.0000000000000E+00
(PID.TID 0000.0001) %MON dynstat_vvel_mean            =   0.0000000000000E+00
(PID.TID 0000.0001) %MON dynstat_vvel_sd              =   0.0000000000000E+00
(PID.TID 0000.0001) %MON dynstat_vvel_del2            =   0.0000000000000E+00
(PID.TID 0000.0001) %MON dynstat_wvel_max             =   6.6828455469800E-03
(PID.TID 0000.0001) %MON dynstat_wvel_min             =  -2.8175074238288E-03
(PID.TID 0000.0001) %MON dynstat_wvel_mean            =  -1.3938690050022E-21
(PID.TID 0000.0001) %MON dynstat_wvel_sd              =   9.9773771337979E-04
(PID.TID 0000.0001) %MON dynstat_wvel_del2            =   8.4567610259906E-05
(PID.TID 0000.0001) %MON dynstat_theta_max            =   4.9362201833142E-02
(PID.TID 0000.0001) %MON dynstat_theta_min            =  -4.7819782565905E-02
(PID.TID 0000.0001) %MON dynstat_theta_mean           =   1.4851670195689E-02
(PID.TID 0000.0001) %MON dynstat_theta_sd             =   2.7408364090546E-02
(PID.TID 0000.0001) %MON dynstat_theta_del2           =   6.4352349324249E-05
(PID.TID 0000.0001) %MON dynstat_salt_max             =   3.5000000000000E+01
(PID.TID 0000.0001) %MON dynstat_salt_min             =   0.0000000000000E+00
(PID.TID 0000.0001) %MON dynstat_salt_mean            =   3.3847052152665E+01
(PID.TID 0000.0001) %MON dynstat_salt_sd              =   6.2469101096520E+00
(PID.TID 0000.0001) %MON dynstat_salt_del2            =   5.6726094003241E-01
(PID.TID 0000.0001) %MON advcfl_uvel_max              =   5.2387829959865E-02
(PID.TID 0000.0001) %MON advcfl_vvel_max              =   0.0000000000000E+00
(PID.TID 0000.0001) %MON advcfl_wvel_max              =   3.3414227734900E-01
(PID.TID 0000.0001) %MON advcfl_W_hf_max              =   3.3414227734900E-01
(PID.TID 0000.0001) %MON pe_b_mean                    =   2.4190411643617E-11
(PID.TID 0000.0001) %MON ke_max                       =   2.6035682208435E-04
(PID.TID 0000.0001) %MON ke_mean                      =   1.0831620555588E-05
(PID.TID 0000.0001) %MON ke_vol                       =   6.6188141628594E+09
(PID.TID 0000.0001) %MON vort_r_min                   =   0.0000000000000E+00
(PID.TID 0000.0001) %MON vort_r_max                   =   0.0000000000000E+00
(PID.TID 0000.0001) %MON vort_a_mean                  =   0.0000000000000E+00
(PID.TID 0000.0001) %MON vort_a_sd                    =   0.0000000000000E+00
(PID.TID 0000.0001) %MON vort_p_mean                  =   0.0000000000000E+00
(PID.TID 0000.0001) %MON vort_p_sd                    =   0.0000000000000E+00
(PID.TID 0000.0001) %MON surfExpan_theta_mean         =   2.3691265916736E-12
(PID.TID 0000.0001) %MON surfExpan_salt_mean          =   4.1438516099185E-19
(PID.TID 0000.0001) // =======================================================
(PID.TID 0000.0001) // End MONITOR dynamic field statistics
(PID.TID 0000.0001) // =======================================================
 cg2d: Sum(rhs),rhsMax =  -1.05510421905507E-13  3.44765716962258E-04
(PID.TID 0000.0001)                    cg2d_init_res =    2.79040133260575E-01
(PID.TID 0000.0001)                       cg2d_iters =    58
(PID.TID 0000.0001)                         cg2d_res =    4.11132203456489E-19
 cg2d: Sum(rhs),rhsMax =  -1.32564247664994E-13  3.03022745621213E-04
 cg2d: Sum(rhs),rhsMax =  -1.29832566410099E-13  3.13834005193768E-04
 cg2d: Sum(rhs),rhsMax =  -1.61186819100378E-13  2.62634396564797E-04
 cg2d: Sum(rhs),rhsMax =  -1.57146017932316E-13  2.67196315643715E-04
(PID.TID 0000.0001) // =======================================================
(PID.TID 0000.0001) // Begin MONITOR dynamic field statistics
(PID.TID 0000.0001) // =======================================================
(PID.TID 0000.0001) %MON time_tsnumber                =                    30
(PID.TID 0000.0001) %MON time_secondsf                =   1.5000000000000E+04
(PID.TID 0000.0001) %MON dynstat_eta_max              =   1.1618370347501E-04
(PID.TID 0000.0001) %MON dynstat_eta_min              =  -8.2225295574158E-06
(PID.TID 0000.0001) %MON dynstat_eta_mean             =   1.8805269039291E-16
(PID.TID 0000.0001) %MON dynstat_eta_sd               =   2.5734658854401E-05
(PID.TID 0000.0001) %MON dynstat_eta_del2             =   1.3921772855056E-06
(PID.TID 0000.0001) %MON dynstat_uvel_max             =   2.2859842249557E-02
(PID.TID 0000.0001) %MON dynstat_uvel_min             =  -2.3409630150852E-02
(PID.TID 0000.0001) %MON dynstat_uvel_mean            =  -2.1561037908194E-08
(PID.TID 0000.0001) %MON dynstat_uvel_sd              =   5.1630069869395E-03
(PID.TID 0000.0001) %MON dynstat_uvel_del2            =   1.3141652265573E-04
(PID.TID 0000.0001) %MON dynstat_vvel_max             =   0.0000000000000E+00
(PID.TID 0000.0001) %MON dynstat_vvel_min             =   0.0000000000000E+00
(PID.TID 0000.0001) %MON dynstat_vvel_mean            =   0.0000000000000E+00
(PID.TID 0000.0001) %MON dynstat_vvel_sd              =   0.0000000000000E+00
(PID.TID 0000.0001) %MON dynstat_vvel_del2            =   0.0000000000000E+00
(PID.TID 0000.0001) %MON dynstat_wvel_max             =   5.8247946164955E-03
(PID.TID 0000.0001) %MON dynstat_wvel_min             =  -2.4924089906653E-03
(PID.TID 0000.0001) %MON dynstat_wvel_mean            =   1.9965627153660E-20
(PID.TID 0000.0001) %MON dynstat_wvel_sd              =   9.0712483353480E-04
(PID.TID 0000.0001) %MON dynstat_wvel_del2            =   7.0565531913349E-05
(PID.TID 0000.0001) %MON dynstat_theta_max            =   4.9241226845175E-02
(PID.TID 0000.0001) %MON dynstat_theta_min            =  -4.7707633110511E-02
(PID.TID 0000.0001) %MON dynstat_theta_mean           =   1.4987451395732E-02
(PID.TID 0000.0001) %MON dynstat_theta_sd             =   2.7331968778209E-02
(PID.TID 0000.0001) %MON dynstat_theta_del2           =   7.5885084297642E-05
(PID.TID 0000.0001) %MON dynstat_salt_max             =   3.5000000000000E+01
(PID.TID 0000.0001) %MON dynstat_salt_min             =   0.0000000000000E+00
(PID.TID 0000.0001) %MON dynstat_salt_mean            =   3.3847052152665E+01
(PID.TID 0000.0001) %MON dynstat_salt_sd              =   6.2469101096520E+00
(PID.TID 0000.0001) %MON dynstat_salt_del2            =   5.6726094003241E-01
(PID.TID 0000.0001) %MON advcfl_uvel_max              =   5.3683738315865E-02
(PID.TID 0000.0001) %MON advcfl_vvel_max              =   0.0000000000000E+00
(PID.TID 0000.0001) %MON advcfl_wvel_max              =   2.9123973082477E-01
(PID.TID 0000.0001) %MON advcfl_W_hf_max              =   2.9123973082477E-01
(PID.TID 0000.0001) %MON pe_b_mean                    =   3.1567448245663E-11
(PID.TID 0000.0001) %MON ke_max                       =   2.5039958615268E-04
(PID.TID 0000.0001) %MON ke_mean                      =   1.2889267087859E-05
(PID.TID 0000.0001) %MON ke_vol                       =   6.6188141628594E+09
(PID.TID 0000.0001) %MON vort_r_min                   =   0.0000000000000E+00
(PID.TID 0000.0001) %MON vort_r_max                   =   0.0000000000000E+00
(PID.TID 0000.0001) %MON vort_a_mean                  =   0.0000000000000E+00
(PID.TID 0000.0001) %MON vort_a_sd                    =   0.0000000000000E+00
(PID.TID 0000.0001) %MON vort_p_mean                  =   0.0000000000000E+00
(PID.TID 0000.0001) %MON vort_p_sd                    =   0.0000000000000E+00
(PID.TID 0000.0001) %MON surfExpan_theta_mean         =  -1.1686232014077E-12
(PID.TID 0000.0001) %MON surfExpan_salt_mean          =   5.8456073329973E-19
(PID.TID 0000.0001) // =======================================================
(PID.TID 0000.0001) // End MONITOR dynamic field statistics
(PID.TID 0000.0001) // =======================================================
 cg2d: Sum(rhs),rhsMax =  -1.49654431642193E-13  3.02827378715949E-04
(PID.TID 0000.0001)                    cg2d_init_res =    2.85698361657287E-01
(PID.TID 0000.0001)                       cg2d_iters =    58
(PID.TID 0000.0001)                         cg2d_res =    2.93770821276624E-19
 cg2d: Sum(rhs),rhsMax =  -1.52779244604832E-13  3.20759636714089E-04
 cg2d: Sum(rhs),rhsMax =  -1.49049365514783E-13  3.36148975351847E-04
 cg2d: Sum(rhs),rhsMax =  -1.51449233471053E-13  3.33795585576017E-04
 cg2d: Sum(rhs),rhsMax =  -1.63616272223430E-13  3.32385001062615E-04
(PID.TID 0000.0001) // =======================================================
(PID.TID 0000.0001) // Begin MONITOR dynamic field statistics
(PID.TID 0000.0001) // =======================================================
(PID.TID 0000.0001) %MON time_tsnumber                =                    35
(PID.TID 0000.0001) %MON time_secondsf                =   1.7500000000000E+04
(PID.TID 0000.0001) %MON dynstat_eta_max              =   1.1190350897709E-04
(PID.TID 0000.0001) %MON dynstat_eta_min              =  -9.5174486561518E-06
(PID.TID 0000.0001) %MON dynstat_eta_mean             =   2.3117124748158E-16
(PID.TID 0000.0001) %MON dynstat_eta_sd               =   2.7420246676460E-05
(PID.TID 0000.0001) %MON dynstat_eta_del2             =   1.2360712436022E-06
(PID.TID 0000.0001) %MON dynstat_uvel_max             =   2.2938735980025E-02
(PID.TID 0000.0001) %MON dynstat_uvel_min             =  -2.3466469154775E-02
(PID.TID 0000.0001) %MON dynstat_uvel_mean            =  -4.3528093597487E-08
(PID.TID 0000.0001) %MON dynstat_uvel_sd              =   5.3479200153616E-03
(PID.TID 0000.0001) %MON dynstat_uvel_del2            =   1.7570082430833E-04
(PID.TID 0000.0001) %MON dynstat_vvel_max             =   0.0000000000000E+00
(PID.TID 0000.0001) %MON dynstat_vvel_min             =   0.0000000000000E+00
(PID.TID 0000.0001) %MON dynstat_vvel_mean            =   0.0000000000000E+00
(PID.TID 0000.0001) %MON dynstat_vvel_sd              =   0.0000000000000E+00
(PID.TID 0000.0001) %MON dynstat_vvel_del2            =   0.0000000000000E+00
(PID.TID 0000.0001) %MON dynstat_wvel_max             =   4.2506117985476E-03
(PID.TID 0000.0001) %MON dynstat_wvel_min             =  -2.7143343066952E-03
(PID.TID 0000.0001) %MON dynstat_wvel_mean            =  -1.5435092440563E-20
(PID.TID 0000.0001) %MON dynstat_wvel_sd              =   7.7736214672431E-04
(PID.TID 0000.0001) %MON dynstat_wvel_del2            =   4.2452898804144E-05
(PID.TID 0000.0001) %MON dynstat_theta_max            =   4.9019285768377E-02
(PID.TID 0000.0001) %MON dynstat_theta_min            =  -4.7820714231623E-02
(PID.TID 0000.0001) %MON dynstat_theta_mean           =   1.5063240077587E-02
(PID.TID 0000.0001) %MON dynstat_theta_sd             =   2.7274302691516E-02
(PID.TID 0000.0001) %MON dynstat_theta_del2           =   8.9000418463205E-05
(PID.TID 0000.0001) %MON dynstat_salt_max             =   3.5000000000000E+01
(PID.TID 0000.0001) %MON dynstat_salt_min             =   0.0000000000000E+00
(PID.TID 0000.0001) %MON dynstat_salt_mean            =   3.3847052152665E+01
(PID.TID 0000.0001) %MON dynstat_salt_sd              =   6.2469101096520E+00
(PID.TID 0000.0001) %MON dynstat_salt_del2            =   5.6726094003241E-01
(PID.TID 0000.0001) %MON advcfl_uvel_max              =   5.3814083400049E-02
(PID.TID 0000.0001) %MON advcfl_vvel_max              =   0.0000000000000E+00
(PID.TID 0000.0001) %MON advcfl_wvel_max              =   2.1253058992738E-01
(PID.TID 0000.0001) %MON advcfl_W_hf_max              =   2.1253058992738E-01
(PID.TID 0000.0001) %MON pe_b_mean                    =   3.5838131692728E-11
(PID.TID 0000.0001) %MON ke_max                       =   2.5041531928340E-04
(PID.TID 0000.0001) %MON ke_mean                      =   1.3829058227744E-05
(PID.TID 0000.0001) %MON ke_vol                       =   6.6188141628594E+09
(PID.TID 0000.0001) %MON vort_r_min                   =   0.0000000000000E+00
(PID.TID 0000.0001) %MON vort_r_max                   =   0.0000000000000E+00
(PID.TID 0000.0001) %MON vort_a_mean                  =   0.0000000000000E+00
(PID.TID 0000.0001) %MON vort_a_sd                    =   0.0000000000000E+00
(PID.TID 0000.0001) %MON vort_p_mean                  =   0.0000000000000E+00
(PID.TID 0000.0001) %MON vort_p_sd                    =   0.0000000000000E+00
(PID.TID 0000.0001) %MON surfExpan_theta_mean         =   2.8505337238797E-13
(PID.TID 0000.0001) %MON surfExpan_salt_mean          =   9.2496722184491E-22
(PID.TID 0000.0001) // =======================================================
(PID.TID 0000.0001) // End MONITOR dynamic field statistics
(PID.TID 0000.0001) // =======================================================
 cg2d: Sum(rhs),rhsMax =  -1.64362298185790E-13  3.14858751356792E-04
(PID.TID 0000.0001)                    cg2d_init_res =    2.55588051701205E-01
(PID.TID 0000.0001)                       cg2d_iters =    58
(PID.TID 0000.0001)                         cg2d_res =    2.51572232762724E-19
 cg2d: Sum(rhs),rhsMax =  -1.82484696841304E-13  3.02967163326988E-04
 cg2d: Sum(rhs),rhsMax =  -2.06485951384158E-13  2.77247781455497E-04
 cg2d: Sum(rhs),rhsMax =  -1.95162950470534E-13  2.98699603149848E-04
 cg2d: Sum(rhs),rhsMax =  -1.71862659737246E-13  3.37198187475095E-04
(PID.TID 0000.0001) // =======================================================
(PID.TID 0000.0001) // Begin MONITOR dynamic field statistics
(PID.TID 0000.0001) // =======================================================
(PID.TID 0000.0001) %MON time_tsnumber                =                    40
(PID.TID 0000.0001) %MON time_secondsf                =   2.0000000000000E+04
(PID.TID 0000.0001) %MON dynstat_eta_max              =   1.1386349225203E-04
(PID.TID 0000.0001) %MON dynstat_eta_min              =  -1.0236255186034E-05
(PID.TID 0000.0001) %MON dynstat_eta_mean             =   2.5850174037109E-16
(PID.TID 0000.0001) %MON dynstat_eta_sd               =   2.7977196937308E-05
(PID.TID 0000.0001) %MON dynstat_eta_del2             =   9.3635484886077E-07
(PID.TID 0000.0001) %MON dynstat_uvel_max             =   2.2602631979400E-02
(PID.TID 0000.0001) %MON dynstat_uvel_min             =  -2.2891226905557E-02
(PID.TID 0000.0001) %MON dynstat_uvel_mean            =   8.6150177281025E-09
(PID.TID 0000.0001) %MON dynstat_uvel_sd              =   5.3663799857227E-03
(PID.TID 0000.0001) %MON dynstat_uvel_del2            =   2.0521742281234E-04
(PID.TID 0000.0001) %MON dynstat_vvel_max             =   0.0000000000000E+00
(PID.TID 0000.0001) %MON dynstat_vvel_min             =   0.0000000000000E+00
(PID.TID 0000.0001) %MON dynstat_vvel_mean            =   0.0000000000000E+00
(PID.TID 0000.0001) %MON dynstat_vvel_sd              =   0.0000000000000E+00
(PID.TID 0000.0001) %MON dynstat_vvel_del2            =   0.0000000000000E+00
(PID.TID 0000.0001) %MON dynstat_wvel_max             =   2.7507964845167E-03
(PID.TID 0000.0001) %MON dynstat_wvel_min             =  -2.6422174397399E-03
(PID.TID 0000.0001) %MON dynstat_wvel_mean            =  -4.0421707112689E-21
(PID.TID 0000.0001) %MON dynstat_wvel_sd              =   6.8851420958027E-04
(PID.TID 0000.0001) %MON dynstat_wvel_del2            =   3.9550069254017E-05
(PID.TID 0000.0001) %MON dynstat_theta_max            =   4.8723665244200E-02
(PID.TID 0000.0001) %MON dynstat_theta_min            =  -4.8116334755800E-02
(PID.TID 0000.0001) %MON dynstat_theta_mean           =   1.5069562527591E-02
(PID.TID 0000.0001) %MON dynstat_theta_sd             =   2.7246705258895E-02
(PID.TID 0000.0001) %MON dynstat_theta_del2           =   1.0541191235429E-04
(PID.TID 0000.0001) %MON dynstat_salt_max             =   3.5000000000000E+01
(PID.TID 0000.0001) %MON dynstat_salt_min             =   0.0000000000000E+00
(PID.TID 0000.0001) %MON dynstat_salt_mean            =   3.3847052152665E+01
(PID.TID 0000.0001) %MON dynstat_salt_sd              =   6.2469101096520E+00
(PID.TID 0000.0001) %MON dynstat_salt_del2            =   5.6726094003241E-01
(PID.TID 0000.0001) %MON advcfl_uvel_max              =   5.2494918843571E-02
(PID.TID 0000.0001) %MON advcfl_vvel_max              =   0.0000000000000E+00
(PID.TID 0000.0001) %MON advcfl_wvel_max              =   1.3753982422584E-01
(PID.TID 0000.0001) %MON advcfl_W_hf_max              =   1.3753982422584E-01
(PID.TID 0000.0001) %MON pe_b_mean                    =   3.7308779845984E-11
(PID.TID 0000.0001) %MON ke_max                       =   2.5520019847848E-04
(PID.TID 0000.0001) %MON ke_mean                      =   1.3924693374106E-05
(PID.TID 0000.0001) %MON ke_vol                       =   6.6188141628594E+09
(PID.TID 0000.0001) %MON vort_r_min                   =   0.0000000000000E+00
(PID.TID 0000.0001) %MON vort_r_max                   =   0.0000000000000E+00
(PID.TID 0000.0001) %MON vort_a_mean                  =   0.0000000000000E+00
(PID.TID 0000.0001) %MON vort_a_sd                    =   0.0000000000000E+00
(PID.TID 0000.0001) %MON vort_p_mean                  =   0.0000000000000E+00
(PID.TID 0000.0001) %MON vort_p_sd                    =   0.0000000000000E+00
(PID.TID 0000.0001) %MON surfExpan_theta_mean         =   6.5194340432413E-13
(PID.TID 0000.0001) %MON surfExpan_salt_mean          =   3.9532648640104E-19
(PID.TID 0000.0001) // =======================================================
(PID.TID 0000.0001) // End MONITOR dynamic field statistics
(PID.TID 0000.0001) // =======================================================
 cg2d: Sum(rhs),rhsMax =  -1.58229515373389E-13  3.68523900980420E-04
(PID.TID 0000.0001)                    cg2d_init_res =    1.93336978809861E-01
(PID.TID 0000.0001)                       cg2d_iters =    58
(PID.TID 0000.0001)                         cg2d_res =    7.23130381312301E-20
 cg2d: Sum(rhs),rhsMax =  -1.46710754981259E-13  4.17467651529810E-04
 cg2d: Sum(rhs),rhsMax =  -1.28989185868914E-13  4.51345116154020E-04
 cg2d: Sum(rhs),rhsMax =  -1.20497321430720E-13  4.97944016180330E-04
 cg2d: Sum(rhs),rhsMax =  -1.13480588587091E-13  5.32005914760519E-04
(PID.TID 0000.0001) // =======================================================
(PID.TID 0000.0001) // Begin MONITOR dynamic field statistics
(PID.TID 0000.0001) // =======================================================
(PID.TID 0000.0001) %MON time_tsnumber                =                    45
(PID.TID 0000.0001) %MON time_secondsf                =   2.2500000000000E+04
(PID.TID 0000.0001) %MON dynstat_eta_max              =   1.1430060807838E-04
(PID.TID 0000.0001) %MON dynstat_eta_min              =  -1.0939282251500E-05
(PID.TID 0000.0001) %MON dynstat_eta_mean             =   2.6594409141373E-16
(PID.TID 0000.0001) %MON dynstat_eta_sd               =   2.7779248885335E-05
(PID.TID 0000.0001) %MON dynstat_eta_del2             =   8.5506693054530E-07
(PID.TID 0000.0001) %MON dynstat_uvel_max             =   2.2698461696016E-02
(PID.TID 0000.0001) %MON dynstat_uvel_min             =  -2.3007469605347E-02
(PID.TID 0000.0001) %MON dynstat_uvel_mean            =  -1.2722378052315E-09
(PID.TID 0000.0001) %MON dynstat_uvel_sd              =   5.3478919999015E-03
(PID.TID 0000.0001) %MON dynstat_uvel_del2            =   2.1502240690056E-04
(PID.TID 0000.0001) %MON dynstat_vvel_max             =   0.0000000000000E+00
(PID.TID 0000.0001) %MON dynstat_vvel_min             =   0.0000000000000E+00
(PID.TID 0000.0001) %MON dynstat_vvel_mean            =   0.0000000000000E+00
(PID.TID 0000.0001) %MON dynstat_vvel_sd              =   0.0000000000000E+00
(PID.TID 0000.0001) %MON dynstat_vvel_del2            =   0.0000000000000E+00
(PID.TID 0000.0001) %MON dynstat_wvel_max             =   3.1969869869515E-03
(PID.TID 0000.0001) %MON dynstat_wvel_min             =  -2.3897546631818E-03
(PID.TID 0000.0001) %MON dynstat_wvel_mean            =   2.1090604955254E-20
(PID.TID 0000.0001) %MON dynstat_wvel_sd              =   7.2211126276271E-04
(PID.TID 0000.0001) %MON dynstat_wvel_del2            =   6.7579028401707E-05
(PID.TID 0000.0001) %MON dynstat_theta_max            =   4.8415755644265E-02
(PID.TID 0000.0001) %MON dynstat_theta_min            =  -4.8449289534453E-02
(PID.TID 0000.0001) %MON dynstat_theta_mean           =   1.5005502928396E-02
(PID.TID 0000.0001) %MON dynstat_theta_sd             =   2.7259140747414E-02
(PID.TID 0000.0001) %MON dynstat_theta_del2           =   1.2153814330658E-04
(PID.TID 0000.0001) %MON dynstat_salt_max             =   3.5000000000000E+01
(PID.TID 0000.0001) %MON dynstat_salt_min             =   0.0000000000000E+00
(PID.TID 0000.0001) %MON dynstat_salt_mean            =   3.3847052152665E+01
(PID.TID 0000.0001) %MON dynstat_salt_sd              =   6.2469101096520E+00
(PID.TID 0000.0001) %MON dynstat_salt_del2            =   5.6726094003241E-01
(PID.TID 0000.0001) %MON advcfl_uvel_max              =   5.2761490448352E-02
(PID.TID 0000.0001) %MON advcfl_vvel_max              =   0.0000000000000E+00
(PID.TID 0000.0001) %MON advcfl_wvel_max              =   1.5984934934757E-01
(PID.TID 0000.0001) %MON advcfl_W_hf_max              =   1.5984934934757E-01
(PID.TID 0000.0001) %MON pe_b_mean                    =   3.6782703275556E-11
(PID.TID 0000.0001) %MON ke_max                       =   2.4859377628726E-04
(PID.TID 0000.0001) %MON ke_mean                      =   1.3828913386199E-05
(PID.TID 0000.0001) %MON ke_vol                       =   6.6188141628594E+09
(PID.TID 0000.0001) %MON vort_r_min                   =   0.0000000000000E+00
(PID.TID 0000.0001) %MON vort_r_max                   =   0.0000000000000E+00
(PID.TID 0000.0001) %MON vort_a_mean                  =   0.0000000000000E+00
(PID.TID 0000.0001) %MON vort_a_sd                    =   0.0000000000000E+00
(PID.TID 0000.0001) %MON vort_p_mean                  =   0.0000000000000E+00
(PID.TID 0000.0001) %MON vort_p_sd                    =   0.0000000000000E+00
(PID.TID 0000.0001) %MON surfExpan_theta_mean         =  -1.8365923950616E-12
(PID.TID 0000.0001) %MON surfExpan_salt_mean          =   6.3432171257549E-19
(PID.TID 0000.0001) // =======================================================
(PID.TID 0000.0001) // End MONITOR dynamic field statistics
(PID.TID 0000.0001) // =======================================================
 cg2d: Sum(rhs),rhsMax =  -1.02648954874301E-13  5.73912075705479E-04
(PID.TID 0000.0001)                    cg2d_init_res =    1.31788486496131E-01
(PID.TID 0000.0001)                       cg2d_iters =    58
(PID.TID 0000.0001)                         cg2d_res =    4.75264116543146E-20
 cg2d: Sum(rhs),rhsMax =  -9.16041873431916E-14  6.05876331641476E-04
 cg2d: Sum(rhs),rhsMax =  -8.65903215015867E-14  6.40987869695487E-04
 cg2d: Sum(rhs),rhsMax =  -8.02630260431786E-14  6.68935444588432E-04
 cg2d: Sum(rhs),rhsMax =  -7.17748440807228E-14  6.95630597653257E-04
(PID.TID 0000.0001) // =======================================================
(PID.TID 0000.0001) // Begin MONITOR dynamic field statistics
(PID.TID 0000.0001) // =======================================================
(PID.TID 0000.0001) %MON time_tsnumber                =                    50
(PID.TID 0000.0001) %MON time_secondsf                =   2.5000000000000E+04
(PID.TID 0000.0001) %MON dynstat_eta_max              =   1.1075926886483E-04
(PID.TID 0000.0001) %MON dynstat_eta_min              =  -3.0627887795938E-05
(PID.TID 0000.0001) %MON dynstat_eta_mean             =   2.2261374708102E-16
(PID.TID 0000.0001) %MON dynstat_eta_sd               =   2.7744440308774E-05
(PID.TID 0000.0001) %MON dynstat_eta_del2             =   1.2491621933261E-06
(PID.TID 0000.0001) %MON dynstat_uvel_max             =   2.3069175744284E-02
(PID.TID 0000.0001) %MON dynstat_uvel_min             =  -2.3311909522623E-02
(PID.TID 0000.0001) %MON dynstat_uvel_mean            =   4.2985997901858E-08
(PID.TID 0000.0001) %MON dynstat_uvel_sd              =   5.4425577494116E-03
(PID.TID 0000.0001) %MON dynstat_uvel_del2            =   2.2232804702825E-04
(PID.TID 0000.0001) %MON dynstat_vvel_max             =   0.0000000000000E+00
(PID.TID 0000.0001) %MON dynstat_vvel_min             =   0.0000000000000E+00
(PID.TID 0000.0001) %MON dynstat_vvel_mean            =   0.0000000000000E+00
(PID.TID 0000.0001) %MON dynstat_vvel_sd              =   0.0000000000000E+00
(PID.TID 0000.0001) %MON dynstat_vvel_del2            =   0.0000000000000E+00
(PID.TID 0000.0001) %MON dynstat_wvel_max             =   3.2066299036332E-03
(PID.TID 0000.0001) %MON dynstat_wvel_min             =  -2.5437838126213E-03
(PID.TID 0000.0001) %MON dynstat_wvel_mean            =  -1.2894368450384E-20
(PID.TID 0000.0001) %MON dynstat_wvel_sd              =   8.6820432089947E-04
(PID.TID 0000.0001) %MON dynstat_wvel_del2            =   9.1767736375205E-05
(PID.TID 0000.0001) %MON dynstat_theta_max            =   4.8272091849416E-02
(PID.TID 0000.0001) %MON dynstat_theta_min            =  -4.8778643298655E-02
(PID.TID 0000.0001) %MON dynstat_theta_mean           =   1.4879003734748E-02
(PID.TID 0000.0001) %MON dynstat_theta_sd             =   2.7315543225448E-02
(PID.TID 0000.0001) %MON dynstat_theta_del2           =   1.2643681360598E-04
(PID.TID 0000.0001) %MON dynstat_salt_max             =   3.5000000000000E+01
(PID.TID 0000.0001) %MON dynstat_salt_min             =   0.0000000000000E+00
(PID.TID 0000.0001) %MON dynstat_salt_mean            =   3.3847052152665E+01
(PID.TID 0000.0001) %MON dynstat_salt_sd              =   6.2469101096520E+00
(PID.TID 0000.0001) %MON dynstat_salt_del2            =   5.6726094003241E-01
(PID.TID 0000.0001) %MON advcfl_uvel_max              =   5.3459642138347E-02
(PID.TID 0000.0001) %MON advcfl_vvel_max              =   0.0000000000000E+00
(PID.TID 0000.0001) %MON advcfl_wvel_max              =   1.6033149518166E-01
(PID.TID 0000.0001) %MON advcfl_W_hf_max              =   1.6033149518166E-01
(PID.TID 0000.0001) %MON pe_b_mean                    =   3.6690580455409E-11
(PID.TID 0000.0001) %MON ke_max                       =   2.3754613610518E-04
(PID.TID 0000.0001) %MON ke_mean                      =   1.4322831752235E-05
(PID.TID 0000.0001) %MON ke_vol                       =   6.6188141628594E+09
(PID.TID 0000.0001) %MON vort_r_min                   =   0.0000000000000E+00
(PID.TID 0000.0001) %MON vort_r_max                   =   0.0000000000000E+00
(PID.TID 0000.0001) %MON vort_a_mean                  =   0.0000000000000E+00
(PID.TID 0000.0001) %MON vort_a_sd                    =   0.0000000000000E+00
(PID.TID 0000.0001) %MON vort_p_mean                  =   0.0000000000000E+00
(PID.TID 0000.0001) %MON vort_p_sd                    =   0.0000000000000E+00
(PID.TID 0000.0001) %MON surfExpan_theta_mean         =   8.7881497809969E-13
(PID.TID 0000.0001) %MON surfExpan_salt_mean          =  -2.8031035545092E-19
(PID.TID 0000.0001) // =======================================================
(PID.TID 0000.0001) // End MONITOR dynamic field statistics
(PID.TID 0000.0001) // =======================================================
 cg2d: Sum(rhs),rhsMax =  -6.55519068930646E-14  7.18169737155418E-04
(PID.TID 0000.0001)                    cg2d_init_res =    9.55122804402819E-02
(PID.TID 0000.0001)                       cg2d_iters =    58
(PID.TID 0000.0001)                         cg2d_res =    2.45666475170405E-19
 cg2d: Sum(rhs),rhsMax =  -6.28679593328791E-14  7.35378536715736E-04
 cg2d: Sum(rhs),rhsMax =  -6.18616621686843E-14  7.51633341544333E-04
 cg2d: Sum(rhs),rhsMax =  -6.11446860482832E-14  7.58766710207440E-04
 cg2d: Sum(rhs),rhsMax =  -6.14306647000670E-14  7.68228754726988E-04
(PID.TID 0000.0001) // =======================================================
(PID.TID 0000.0001) // Begin MONITOR dynamic field statistics
(PID.TID 0000.0001) // =======================================================
(PID.TID 0000.0001) %MON time_tsnumber                =                    55
(PID.TID 0000.0001) %MON time_secondsf                =   2.7500000000000E+04
(PID.TID 0000.0001) %MON dynstat_eta_max              =   1.1441458689276E-04
(PID.TID 0000.0001) %MON dynstat_eta_min              =  -8.7092581609334E-05
(PID.TID 0000.0001) %MON dynstat_eta_mean             =   2.0764199892211E-16
(PID.TID 0000.0001) %MON dynstat_eta_sd               =   2.9708965912494E-05
(PID.TID 0000.0001) %MON dynstat_eta_del2             =   1.7665073118097E-06
(PID.TID 0000.0001) %MON dynstat_uvel_max             =   2.2778050975816E-02
(PID.TID 0000.0001) %MON dynstat_uvel_min             =  -2.2956020397019E-02
(PID.TID 0000.0001) %MON dynstat_uvel_mean            =   3.4410369129575E-08
(PID.TID 0000.0001) %MON dynstat_uvel_sd              =   5.7330695561900E-03
(PID.TID 0000.0001) %MON dynstat_uvel_del2            =   2.2217299439577E-04
(PID.TID 0000.0001) %MON dynstat_vvel_max             =   0.0000000000000E+00
(PID.TID 0000.0001) %MON dynstat_vvel_min             =   0.0000000000000E+00
(PID.TID 0000.0001) %MON dynstat_vvel_mean            =   0.0000000000000E+00
(PID.TID 0000.0001) %MON dynstat_vvel_sd              =   0.0000000000000E+00
(PID.TID 0000.0001) %MON dynstat_vvel_del2            =   0.0000000000000E+00
(PID.TID 0000.0001) %MON dynstat_wvel_max             =   3.2919569190221E-03
(PID.TID 0000.0001) %MON dynstat_wvel_min             =  -4.5670763291970E-03
(PID.TID 0000.0001) %MON dynstat_wvel_mean            =  -1.7290643365619E-20
(PID.TID 0000.0001) %MON dynstat_wvel_sd              =   1.0435469753347E-03
(PID.TID 0000.0001) %MON dynstat_wvel_del2            =   1.0890436062716E-04
(PID.TID 0000.0001) %MON dynstat_theta_max            =   4.8133584010659E-02
(PID.TID 0000.0001) %MON dynstat_theta_min            =  -4.9063903507753E-02
(PID.TID 0000.0001) %MON dynstat_theta_mean           =   1.4705874217986E-02
(PID.TID 0000.0001) %MON dynstat_theta_sd             =   2.7410302593885E-02
(PID.TID 0000.0001) %MON dynstat_theta_del2           =   1.2659774546715E-04
(PID.TID 0000.0001) %MON dynstat_salt_max             =   3.5000000000000E+01
(PID.TID 0000.0001) %MON dynstat_salt_min             =   0.0000000000000E+00
(PID.TID 0000.0001) %MON dynstat_salt_mean            =   3.3847052152665E+01
(PID.TID 0000.0001) %MON dynstat_salt_sd              =   6.2469101096520E+00
(PID.TID 0000.0001) %MON dynstat_salt_del2            =   5.6726094003241E-01
(PID.TID 0000.0001) %MON advcfl_uvel_max              =   5.2643505421735E-02
(PID.TID 0000.0001) %MON advcfl_vvel_max              =   0.0000000000000E+00
(PID.TID 0000.0001) %MON advcfl_wvel_max              =   2.2835381645985E-01
(PID.TID 0000.0001) %MON advcfl_W_hf_max              =   2.2835381645985E-01
(PID.TID 0000.0001) %MON pe_b_mean                    =   4.2070504214276E-11
(PID.TID 0000.0001) %MON ke_max                       =   2.4694490023704E-04
(PID.TID 0000.0001) %MON ke_mean                      =   1.5892683112833E-05
(PID.TID 0000.0001) %MON ke_vol                       =   6.6188141628594E+09
(PID.TID 0000.0001) %MON vort_r_min                   =   0.0000000000000E+00
(PID.TID 0000.0001) %MON vort_r_max                   =   0.0000000000000E+00
(PID.TID 0000.0001) %MON vort_a_mean                  =   0.0000000000000E+00
(PID.TID 0000.0001) %MON vort_a_sd                    =   0.0000000000000E+00
(PID.TID 0000.0001) %MON vort_p_mean                  =   0.0000000000000E+00
(PID.TID 0000.0001) %MON vort_p_sd                    =   0.0000000000000E+00
(PID.TID 0000.0001) %MON surfExpan_theta_mean         =  -1.1699716920328E-12
(PID.TID 0000.0001) %MON surfExpan_salt_mean          =  -3.7688405180629E-19
(PID.TID 0000.0001) // =======================================================
(PID.TID 0000.0001) // End MONITOR dynamic field statistics
(PID.TID 0000.0001) // =======================================================
 cg2d: Sum(rhs),rhsMax =  -6.20916282257321E-14  7.64963594582165E-04
(PID.TID 0000.0001)                    cg2d_init_res =    8.01869960246854E-02
(PID.TID 0000.0001)                       cg2d_iters =    58
(PID.TID 0000.0001)                         cg2d_res =    4.76702856241762E-19
 cg2d: Sum(rhs),rhsMax =  -5.84851736945601E-14  7.67275824732914E-04
 cg2d: Sum(rhs),rhsMax =  -5.36795271861151E-14  7.53324583708110E-04
 cg2d: Sum(rhs),rhsMax =  -5.45239555070566E-14  7.48059089624095E-04
 cg2d: Sum(rhs),rhsMax =  -5.40818949411152E-14  7.23025543073481E-04
(PID.TID 0000.0001) // =======================================================
(PID.TID 0000.0001) // Begin MONITOR dynamic field statistics
(PID.TID 0000.0001) // =======================================================
(PID.TID 0000.0001) %MON time_tsnumber                =                    60
(PID.TID 0000.0001) %MON time_secondsf                =   3.0000000000000E+04
(PID.TID 0000.0001) %MON dynstat_eta_max              =   1.1632642428638E-04
(PID.TID 0000.0001) %MON dynstat_eta_min              =  -1.3586796378198E-04
(PID.TID 0000.0001) %MON dynstat_eta_mean             =   1.6725323799763E-16
(PID.TID 0000.0001) %MON dynstat_eta_sd               =   3.3485078171994E-05
(PID.TID 0000.0001) %MON dynstat_eta_del2             =   2.1351579028204E-06
(PID.TID 0000.0001) %MON dynstat_uvel_max             =   2.2418187834276E-02
(PID.TID 0000.0001) %MON dynstat_uvel_min             =  -2.2537756721698E-02
(PID.TID 0000.0001) %MON dynstat_uvel_mean            =   5.2344769700659E-08
(PID.TID 0000.0001) %MON dynstat_uvel_sd              =   6.1833631930257E-03
(PID.TID 0000.0001) %MON dynstat_uvel_del2            =   2.1849271466537E-04
(PID.TID 0000.0001) %MON dynstat_vvel_max             =   0.0000000000000E+00
(PID.TID 0000.0001) %MON dynstat_vvel_min             =   0.0000000000000E+00
(PID.TID 0000.0001) %MON dynstat_vvel_mean            =   0.0000000000000E+00
(PID.TID 0000.0001) %MON dynstat_vvel_sd              =   0.0000000000000E+00
(PID.TID 0000.0001) %MON dynstat_vvel_del2            =   0.0000000000000E+00
(PID.TID 0000.0001) %MON dynstat_wvel_max             =   3.3121616622408E-03
(PID.TID 0000.0001) %MON dynstat_wvel_min             =  -6.0288676758336E-03
(PID.TID 0000.0001) %MON dynstat_wvel_mean            =  -3.2735401939591E-20
(PID.TID 0000.0001) %MON dynstat_wvel_sd              =   1.1815249351601E-03
(PID.TID 0000.0001) %MON dynstat_wvel_del2            =   1.1458127700703E-04
(PID.TID 0000.0001) %MON dynstat_theta_max            =   4.8026380564824E-02
(PID.TID 0000.0001) %MON dynstat_theta_min            =  -4.9269998722252E-02
(PID.TID 0000.0001) %MON dynstat_theta_mean           =   1.4507599684624E-02
(PID.TID 0000.0001) %MON dynstat_theta_sd             =   2.7528160458055E-02
(PID.TID 0000.0001) %MON dynstat_theta_del2           =   1.2775955693248E-04
(PID.TID 0000.0001) %MON dynstat_salt_max             =   3.5000000000000E+01
(PID.TID 0000.0001) %MON dynstat_salt_min             =   0.0000000000000E+00
(PID.TID 0000.0001) %MON dynstat_salt_mean            =   3.3847052152665E+01
(PID.TID 0000.0001) %MON dynstat_salt_sd              =   6.2469101096520E+00
(PID.TID 0000.0001) %MON dynstat_salt_del2            =   5.6726094003241E-01
(PID.TID 0000.0001) %MON advcfl_uvel_max              =   5.1684329324194E-02
(PID.TID 0000.0001) %MON advcfl_vvel_max              =   0.0000000000000E+00
(PID.TID 0000.0001) %MON advcfl_wvel_max              =   3.0144338379168E-01
(PID.TID 0000.0001) %MON advcfl_W_hf_max              =   3.0144338379168E-01
(PID.TID 0000.0001) %MON pe_b_mean                    =   5.3444778367869E-11
(PID.TID 0000.0001) %MON ke_max                       =   2.4616953712650E-04
(PID.TID 0000.0001) %MON ke_mean                      =   1.8487249876176E-05
(PID.TID 0000.0001) %MON ke_vol                       =   6.6188141628594E+09
(PID.TID 0000.0001) %MON vort_r_min                   =   0.0000000000000E+00
(PID.TID 0000.0001) %MON vort_r_max                   =   0.0000000000000E+00
(PID.TID 0000.0001) %MON vort_a_mean                  =   0.0000000000000E+00
(PID.TID 0000.0001) %MON vort_a_sd                    =   0.0000000000000E+00
(PID.TID 0000.0001) %MON vort_p_mean                  =   0.0000000000000E+00
(PID.TID 0000.0001) %MON vort_p_sd                    =   0.0000000000000E+00
(PID.TID 0000.0001) %MON surfExpan_theta_mean         =  -1.3342403468280E-13
(PID.TID 0000.0001) %MON surfExpan_salt_mean          =  -1.2168088668866E-18
(PID.TID 0000.0001) // =======================================================
(PID.TID 0000.0001) // End MONITOR dynamic field statistics
(PID.TID 0000.0001) // =======================================================
 cg2d: Sum(rhs),rhsMax =  -4.68298800616624E-14  7.09609659355835E-04
(PID.TID 0000.0001)                    cg2d_init_res =    8.71411187200233E-02
(PID.TID 0000.0001)                       cg2d_iters =    58
(PID.TID 0000.0001)                         cg2d_res =    3.95983949117090E-19
 cg2d: Sum(rhs),rhsMax =  -4.33410292789531E-14  6.72987932834095E-04
 cg2d: Sum(rhs),rhsMax =  -4.47652033714122E-14  6.50819959352880E-04
 cg2d: Sum(rhs),rhsMax =  -4.35169546339660E-14  6.02205319392845E-04
 cg2d: Sum(rhs),rhsMax =  -4.95634315653051E-14  5.70928815270701E-04
(PID.TID 0000.0001) // =======================================================
(PID.TID 0000.0001) // Begin MONITOR dynamic field statistics
(PID.TID 0000.0001) // =======================================================
(PID.TID 0000.0001) %MON time_tsnumber                =                    65
(PID.TID 0000.0001) %MON time_secondsf                =   3.2500000000000E+04
(PID.TID 0000.0001) %MON dynstat_eta_max              =   1.1530852465459E-04
(PID.TID 0000.0001) %MON dynstat_eta_min              =  -1.7121266900720E-04
(PID.TID 0000.0001) %MON dynstat_eta_mean             =   1.3711650963376E-16
(PID.TID 0000.0001) %MON dynstat_eta_sd               =   3.8590834616143E-05
(PID.TID 0000.0001) %MON dynstat_eta_del2             =   2.4376039081051E-06
(PID.TID 0000.0001) %MON dynstat_uvel_max             =   2.3020874304323E-02
(PID.TID 0000.0001) %MON dynstat_uvel_min             =  -2.3069945832883E-02
(PID.TID 0000.0001) %MON dynstat_uvel_mean            =   6.5816947510342E-08
(PID.TID 0000.0001) %MON dynstat_uvel_sd              =   6.6797157788495E-03
(PID.TID 0000.0001) %MON dynstat_uvel_del2            =   2.1398447684947E-04
(PID.TID 0000.0001) %MON dynstat_vvel_max             =   0.0000000000000E+00
(PID.TID 0000.0001) %MON dynstat_vvel_min             =   0.0000000000000E+00
(PID.TID 0000.0001) %MON dynstat_vvel_mean            =   0.0000000000000E+00
(PID.TID 0000.0001) %MON dynstat_vvel_sd              =   0.0000000000000E+00
(PID.TID 0000.0001) %MON dynstat_vvel_del2            =   0.0000000000000E+00
(PID.TID 0000.0001) %MON dynstat_wvel_max             =   3.1980608125117E-03
(PID.TID 0000.0001) %MON dynstat_wvel_min             =  -6.7494372846712E-03
(PID.TID 0000.0001) %MON dynstat_wvel_mean            =   7.9418997551963E-21
(PID.TID 0000.0001) %MON dynstat_wvel_sd              =   1.2476691117831E-03
(PID.TID 0000.0001) %MON dynstat_wvel_del2            =   1.1384289687216E-04
(PID.TID 0000.0001) %MON dynstat_theta_max            =   4.7914085933823E-02
(PID.TID 0000.0001) %MON dynstat_theta_min            =  -4.9371590477079E-02
(PID.TID 0000.0001) %MON dynstat_theta_mean           =   1.4308527155379E-02
(PID.TID 0000.0001) %MON dynstat_theta_sd             =   2.7647761104280E-02
(PID.TID 0000.0001) %MON dynstat_theta_del2           =   1.2789265319819E-04
(PID.TID 0000.0001) %MON dynstat_salt_max             =   3.5000000000000E+01
(PID.TID 0000.0001) %MON dynstat_salt_min             =   0.0000000000000E+00
(PID.TID 0000.0001) %MON dynstat_salt_mean            =   3.3847052152665E+01
(PID.TID 0000.0001) %MON dynstat_salt_sd              =   6.2469101096520E+00
(PID.TID 0000.0001) %MON dynstat_salt_del2            =   5.6726094003241E-01
(PID.TID 0000.0001) %MON advcfl_uvel_max              =   5.2904763000221E-02
(PID.TID 0000.0001) %MON advcfl_vvel_max              =   0.0000000000000E+00
(PID.TID 0000.0001) %MON advcfl_wvel_max              =   3.3747186423356E-01
(PID.TID 0000.0001) %MON advcfl_W_hf_max              =   3.3747186423356E-01
(PID.TID 0000.0001) %MON pe_b_mean                    =   7.0985719513649E-11
(PID.TID 0000.0001) %MON ke_max                       =   2.3379853932194E-04
(PID.TID 0000.0001) %MON ke_mean                      =   2.1574402107636E-05
(PID.TID 0000.0001) %MON ke_vol                       =   6.6188141628594E+09
(PID.TID 0000.0001) %MON vort_r_min                   =   0.0000000000000E+00
(PID.TID 0000.0001) %MON vort_r_max                   =   0.0000000000000E+00
(PID.TID 0000.0001) %MON vort_a_mean                  =   0.0000000000000E+00
(PID.TID 0000.0001) %MON vort_a_sd                    =   0.0000000000000E+00
(PID.TID 0000.0001) %MON vort_p_mean                  =   0.0000000000000E+00
(PID.TID 0000.0001) %MON vort_p_sd                    =   0.0000000000000E+00
(PID.TID 0000.0001) %MON surfExpan_theta_mean         =   2.5579567591515E-15
(PID.TID 0000.0001) %MON surfExpan_salt_mean          =  -4.7450552591011E-19
(PID.TID 0000.0001) // =======================================================
(PID.TID 0000.0001) // End MONITOR dynamic field statistics
(PID.TID 0000.0001) // =======================================================
 cg2d: Sum(rhs),rhsMax =  -5.91224660374812E-14  5.10348417469091E-04
(PID.TID 0000.0001)                    cg2d_init_res =    1.94608442473155E-01
(PID.TID 0000.0001)                       cg2d_iters =    58
(PID.TID 0000.0001)                         cg2d_res =    5.43538244134908E-19
 cg2d: Sum(rhs),rhsMax =  -5.59221112884749E-14  4.70222276096347E-04
 cg2d: Sum(rhs),rhsMax =  -6.45691115050244E-14  3.98472411789364E-04
 cg2d: Sum(rhs),rhsMax =  -5.69107071581379E-14  3.50650414397776E-04
 cg2d: Sum(rhs),rhsMax =  -5.93540990553691E-14  3.34990612577332E-04
(PID.TID 0000.0001) // =======================================================
(PID.TID 0000.0001) // Begin MONITOR dynamic field statistics
(PID.TID 0000.0001) // =======================================================
(PID.TID 0000.0001) %MON time_tsnumber                =                    70
(PID.TID 0000.0001) %MON time_secondsf                =   3.5000000000000E+04
(PID.TID 0000.0001) %MON dynstat_eta_max              =   1.1739499057427E-04
(PID.TID 0000.0001) %MON dynstat_eta_min              =  -1.8216479624887E-04
(PID.TID 0000.0001) %MON dynstat_eta_mean             =   8.9624453343623E-17
(PID.TID 0000.0001) %MON dynstat_eta_sd               =   4.3415515645941E-05
(PID.TID 0000.0001) %MON dynstat_eta_del2             =   2.5300620404549E-06
(PID.TID 0000.0001) %MON dynstat_uvel_max             =   2.2725295005345E-02
(PID.TID 0000.0001) %MON dynstat_uvel_min             =  -2.2882648850336E-02
(PID.TID 0000.0001) %MON dynstat_uvel_mean            =   5.9584878597059E-08
(PID.TID 0000.0001) %MON dynstat_uvel_sd              =   7.1013122809144E-03
(PID.TID 0000.0001) %MON dynstat_uvel_del2            =   2.2030421082267E-04
(PID.TID 0000.0001) %MON dynstat_vvel_max             =   0.0000000000000E+00
(PID.TID 0000.0001) %MON dynstat_vvel_min             =   0.0000000000000E+00
(PID.TID 0000.0001) %MON dynstat_vvel_mean            =   0.0000000000000E+00
(PID.TID 0000.0001) %MON dynstat_vvel_sd              =   0.0000000000000E+00
(PID.TID 0000.0001) %MON dynstat_vvel_del2            =   0.0000000000000E+00
(PID.TID 0000.0001) %MON dynstat_wvel_max             =   3.3003880988614E-03
(PID.TID 0000.0001) %MON dynstat_wvel_min             =  -6.6401944142330E-03
(PID.TID 0000.0001) %MON dynstat_wvel_mean            =  -2.5853611151890E-20
(PID.TID 0000.0001) %MON dynstat_wvel_sd              =   1.2345782330293E-03
(PID.TID 0000.0001) %MON dynstat_wvel_del2            =   1.0100080041744E-04
(PID.TID 0000.0001) %MON dynstat_theta_max            =   4.7789441794749E-02
(PID.TID 0000.0001) %MON dynstat_theta_min            =  -4.9356188530100E-02
(PID.TID 0000.0001) %MON dynstat_theta_mean           =   1.4132902620351E-02
(PID.TID 0000.0001) %MON dynstat_theta_sd             =   2.7747325658452E-02
(PID.TID 0000.0001) %MON dynstat_theta_del2           =   1.2404787388642E-04
(PID.TID 0000.0001) %MON dynstat_salt_max             =   3.5000000000000E+01
(PID.TID 0000.0001) %MON dynstat_salt_min             =   0.0000000000000E+00
(PID.TID 0000.0001) %MON dynstat_salt_mean            =   3.3847052152665E+01
(PID.TID 0000.0001) %MON dynstat_salt_sd              =   6.2469101096520E+00
(PID.TID 0000.0001) %MON dynstat_salt_del2            =   5.6726094003241E-01
(PID.TID 0000.0001) %MON advcfl_uvel_max              =   5.2475247363553E-02
(PID.TID 0000.0001) %MON advcfl_vvel_max              =   0.0000000000000E+00
(PID.TID 0000.0001) %MON advcfl_wvel_max              =   3.3200972071165E-01
(PID.TID 0000.0001) %MON advcfl_W_hf_max              =   3.3200972071165E-01
(PID.TID 0000.0001) %MON pe_b_mean                    =   8.9844722809286E-11
(PID.TID 0000.0001) %MON ke_max                       =   2.5538831143169E-04
(PID.TID 0000.0001) %MON ke_mean                      =   2.4383723169163E-05
(PID.TID 0000.0001) %MON ke_vol                       =   6.6188141628594E+09
(PID.TID 0000.0001) %MON vort_r_min                   =   0.0000000000000E+00
(PID.TID 0000.0001) %MON vort_r_max                   =   0.0000000000000E+00
(PID.TID 0000.0001) %MON vort_a_mean                  =   0.0000000000000E+00
(PID.TID 0000.0001) %MON vort_a_sd                    =   0.0000000000000E+00
(PID.TID 0000.0001) %MON vort_p_mean                  =   0.0000000000000E+00
(PID.TID 0000.0001) %MON vort_p_sd                    =   0.0000000000000E+00
(PID.TID 0000.0001) %MON surfExpan_theta_mean         =  -3.1335485402877E-13
(PID.TID 0000.0001) %MON surfExpan_salt_mean          =  -8.1807067230616E-19
(PID.TID 0000.0001) // =======================================================
(PID.TID 0000.0001) // End MONITOR dynamic field statistics
(PID.TID 0000.0001) // =======================================================
 cg2d: Sum(rhs),rhsMax =  -4.46343062878753E-14  3.62758602511056E-04
(PID.TID 0000.0001)                    cg2d_init_res =    2.34478797000923E-01
(PID.TID 0000.0001)                       cg2d_iters =    58
(PID.TID 0000.0001)                         cg2d_res =    1.76580842995807E-18
 cg2d: Sum(rhs),rhsMax =  -3.41879302645509E-14  4.06813106581205E-04
 cg2d: Sum(rhs),rhsMax =  -3.81812501537224E-14  4.27720353677638E-04
 cg2d: Sum(rhs),rhsMax =  -3.02021455804782E-14  4.66863932098164E-04
 cg2d: Sum(rhs),rhsMax =  -3.22773220911426E-14  4.76632511607054E-04
(PID.TID 0000.0001) // =======================================================
(PID.TID 0000.0001) // Begin MONITOR dynamic field statistics
(PID.TID 0000.0001) // =======================================================
(PID.TID 0000.0001) %MON time_tsnumber                =                    75
(PID.TID 0000.0001) %MON time_secondsf                =   3.7500000000000E+04
(PID.TID 0000.0001) %MON dynstat_eta_max              =   1.1875198197895E-04
(PID.TID 0000.0001) %MON dynstat_eta_min              =  -1.7817375732919E-04
(PID.TID 0000.0001) %MON dynstat_eta_mean             =   6.4678530108501E-17
(PID.TID 0000.0001) %MON dynstat_eta_sd               =   4.6936835107720E-05
(PID.TID 0000.0001) %MON dynstat_eta_del2             =   2.4113383094095E-06
(PID.TID 0000.0001) %MON dynstat_uvel_max             =   2.2680636005868E-02
(PID.TID 0000.0001) %MON dynstat_uvel_min             =  -2.3291927407169E-02
(PID.TID 0000.0001) %MON dynstat_uvel_mean            =   7.6935006175390E-08
(PID.TID 0000.0001) %MON dynstat_uvel_sd              =   7.3678032686652E-03
(PID.TID 0000.0001) %MON dynstat_uvel_del2            =   2.5102498346999E-04
(PID.TID 0000.0001) %MON dynstat_vvel_max             =   0.0000000000000E+00
(PID.TID 0000.0001) %MON dynstat_vvel_min             =   0.0000000000000E+00
(PID.TID 0000.0001) %MON dynstat_vvel_mean            =   0.0000000000000E+00
(PID.TID 0000.0001) %MON dynstat_vvel_sd              =   0.0000000000000E+00
(PID.TID 0000.0001) %MON dynstat_vvel_del2            =   0.0000000000000E+00
(PID.TID 0000.0001) %MON dynstat_wvel_max             =   3.2449490980774E-03
(PID.TID 0000.0001) %MON dynstat_wvel_min             =  -5.7145699763620E-03
(PID.TID 0000.0001) %MON dynstat_wvel_mean            =   1.0924069839403E-20
(PID.TID 0000.0001) %MON dynstat_wvel_sd              =   1.1585847443264E-03
(PID.TID 0000.0001) %MON dynstat_wvel_del2            =   7.6902593698843E-05
(PID.TID 0000.0001) %MON dynstat_theta_max            =   4.7676083494528E-02
(PID.TID 0000.0001) %MON dynstat_theta_min            =  -4.9225686480332E-02
(PID.TID 0000.0001) %MON dynstat_theta_mean           =   1.4002119319639E-02
(PID.TID 0000.0001) %MON dynstat_theta_sd             =   2.7810302706416E-02
(PID.TID 0000.0001) %MON dynstat_theta_del2           =   1.3428457255591E-04
(PID.TID 0000.0001) %MON dynstat_salt_max             =   3.5000000000000E+01
(PID.TID 0000.0001) %MON dynstat_salt_min             =   0.0000000000000E+00
(PID.TID 0000.0001) %MON dynstat_salt_mean            =   3.3847052152665E+01
(PID.TID 0000.0001) %MON dynstat_salt_sd              =   6.2469101096520E+00
(PID.TID 0000.0001) %MON dynstat_salt_del2            =   5.6726094003241E-01
(PID.TID 0000.0001) %MON advcfl_uvel_max              =   5.3413818490124E-02
(PID.TID 0000.0001) %MON advcfl_vvel_max              =   0.0000000000000E+00
(PID.TID 0000.0001) %MON advcfl_wvel_max              =   2.8572849881810E-01
(PID.TID 0000.0001) %MON advcfl_W_hf_max              =   2.8572849881810E-01
(PID.TID 0000.0001) %MON pe_b_mean                    =   1.0500990141362E-10
(PID.TID 0000.0001) %MON ke_max                       =   2.4136646875301E-04
(PID.TID 0000.0001) %MON ke_mean                      =   2.6248158581095E-05
(PID.TID 0000.0001) %MON ke_vol                       =   6.6188141628594E+09
(PID.TID 0000.0001) %MON vort_r_min                   =   0.0000000000000E+00
(PID.TID 0000.0001) %MON vort_r_max                   =   0.0000000000000E+00
(PID.TID 0000.0001) %MON vort_a_mean                  =   0.0000000000000E+00
(PID.TID 0000.0001) %MON vort_a_sd                    =   0.0000000000000E+00
(PID.TID 0000.0001) %MON vort_p_mean                  =   0.0000000000000E+00
(PID.TID 0000.0001) %MON vort_p_sd                    =   0.0000000000000E+00
(PID.TID 0000.0001) %MON surfExpan_theta_mean         =  -1.2400584459828E-12
(PID.TID 0000.0001) %MON surfExpan_salt_mean          =   3.2217034497741E-19
(PID.TID 0000.0001) // =======================================================
(PID.TID 0000.0001) // End MONITOR dynamic field statistics
(PID.TID 0000.0001) // =======================================================
 cg2d: Sum(rhs),rhsMax =  -2.36532934081227E-14  5.06784550789546E-04
(PID.TID 0000.0001)                    cg2d_init_res =    2.33329507914514E-01
(PID.TID 0000.0001)                       cg2d_iters =    58
(PID.TID 0000.0001)                         cg2d_res =    2.74676625230667E-19
 cg2d: Sum(rhs),rhsMax =  -2.22489127815750E-14  5.01936332667577E-04
 cg2d: Sum(rhs),rhsMax =  -2.28021133875586E-14  5.20270793642579E-04
 cg2d: Sum(rhs),rhsMax =  -2.14068739405777E-14  4.99044449775973E-04
 cg2d: Sum(rhs),rhsMax =  -2.24133862511411E-14  5.04705343840693E-04
(PID.TID 0000.0001) // =======================================================
(PID.TID 0000.0001) // Begin MONITOR dynamic field statistics
(PID.TID 0000.0001) // =======================================================
(PID.TID 0000.0001) %MON time_tsnumber                =                    80
(PID.TID 0000.0001) %MON time_secondsf                =   4.0000000000000E+04
(PID.TID 0000.0001) %MON dynstat_eta_max              =   1.1693698504607E-04
(PID.TID 0000.0001) %MON dynstat_eta_min              =  -1.7877633127119E-04
(PID.TID 0000.0001) %MON dynstat_eta_mean             =   4.6193178887694E-17
(PID.TID 0000.0001) %MON dynstat_eta_sd               =   4.9129140238746E-05
(PID.TID 0000.0001) %MON dynstat_eta_del2             =   2.1104778865905E-06
(PID.TID 0000.0001) %MON dynstat_uvel_max             =   2.2518795612161E-02
(PID.TID 0000.0001) %MON dynstat_uvel_min             =  -2.2779025688592E-02
(PID.TID 0000.0001) %MON dynstat_uvel_mean            =   3.5223871672528E-08
(PID.TID 0000.0001) %MON dynstat_uvel_sd              =   7.4633976768210E-03
(PID.TID 0000.0001) %MON dynstat_uvel_del2            =   2.8015646153342E-04
(PID.TID 0000.0001) %MON dynstat_vvel_max             =   0.0000000000000E+00
(PID.TID 0000.0001) %MON dynstat_vvel_min             =   0.0000000000000E+00
(PID.TID 0000.0001) %MON dynstat_vvel_mean            =   0.0000000000000E+00
(PID.TID 0000.0001) %MON dynstat_vvel_sd              =   0.0000000000000E+00
(PID.TID 0000.0001) %MON dynstat_vvel_del2            =   0.0000000000000E+00
(PID.TID 0000.0001) %MON dynstat_wvel_max             =   3.1124952379228E-03
(PID.TID 0000.0001) %MON dynstat_wvel_min             =  -4.0863652669698E-03
(PID.TID 0000.0001) %MON dynstat_wvel_mean            =   4.3059311284628E-20
(PID.TID 0000.0001) %MON dynstat_wvel_sd              =   1.0611346006997E-03
(PID.TID 0000.0001) %MON dynstat_wvel_del2            =   5.4350811794572E-05
(PID.TID 0000.0001) %MON dynstat_theta_max            =   4.7843871041406E-02
(PID.TID 0000.0001) %MON dynstat_theta_min            =  -4.8996128958594E-02
(PID.TID 0000.0001) %MON dynstat_theta_mean           =   1.3932309122248E-02
(PID.TID 0000.0001) %MON dynstat_theta_sd             =   2.7829074682319E-02
(PID.TID 0000.0001) %MON dynstat_theta_del2           =   1.5314800246383E-04
(PID.TID 0000.0001) %MON dynstat_salt_max             =   3.5000000000000E+01
(PID.TID 0000.0001) %MON dynstat_salt_min             =   0.0000000000000E+00
(PID.TID 0000.0001) %MON dynstat_salt_mean            =   3.3847052152665E+01
(PID.TID 0000.0001) %MON dynstat_salt_sd              =   6.2469101096520E+00
(PID.TID 0000.0001) %MON dynstat_salt_del2            =   5.6726094003241E-01
(PID.TID 0000.0001) %MON advcfl_uvel_max              =   5.2237615300907E-02
(PID.TID 0000.0001) %MON advcfl_vvel_max              =   0.0000000000000E+00
(PID.TID 0000.0001) %MON advcfl_wvel_max              =   2.0431826334849E-01
(PID.TID 0000.0001) %MON advcfl_W_hf_max              =   2.0431826334849E-01
(PID.TID 0000.0001) %MON pe_b_mean                    =   1.1504850357010E-10
(PID.TID 0000.0001) %MON ke_max                       =   2.3869593430145E-04
(PID.TID 0000.0001) %MON ke_mean                      =   2.6933696351373E-05
(PID.TID 0000.0001) %MON ke_vol                       =   6.6188141628594E+09
(PID.TID 0000.0001) %MON vort_r_min                   =   0.0000000000000E+00
(PID.TID 0000.0001) %MON vort_r_max                   =   0.0000000000000E+00
(PID.TID 0000.0001) %MON vort_a_mean                  =   0.0000000000000E+00
(PID.TID 0000.0001) %MON vort_a_sd                    =   0.0000000000000E+00
(PID.TID 0000.0001) %MON vort_p_mean                  =   0.0000000000000E+00
(PID.TID 0000.0001) %MON vort_p_sd                    =   0.0000000000000E+00
(PID.TID 0000.0001) %MON surfExpan_theta_mean         =   1.2426006565922E-12
(PID.TID 0000.0001) %MON surfExpan_salt_mean          =   5.6534906565816E-19
(PID.TID 0000.0001) // =======================================================
(PID.TID 0000.0001) // End MONITOR dynamic field statistics
(PID.TID 0000.0001) // =======================================================
 cg2d: Sum(rhs),rhsMax =  -1.23540390631750E-14  4.67477621183673E-04
(PID.TID 0000.0001)                    cg2d_init_res =    1.86457358819555E-01
(PID.TID 0000.0001)                       cg2d_iters =    58
(PID.TID 0000.0001)                         cg2d_res =    1.23515590729498E-18
 cg2d: Sum(rhs),rhsMax =  -5.60157118172783E-15  5.26549831488096E-04
 cg2d: Sum(rhs),rhsMax =  -1.35345632813234E-14  5.48952002087457E-04
 cg2d: Sum(rhs),rhsMax =  -1.70275120094316E-14  6.09130669007545E-04
 cg2d: Sum(rhs),rhsMax =  -1.70357434756130E-14  6.19938494735172E-04
(PID.TID 0000.0001) // =======================================================
(PID.TID 0000.0001) // Begin MONITOR dynamic field statistics
(PID.TID 0000.0001) // =======================================================
(PID.TID 0000.0001) %MON time_tsnumber                =                    85
(PID.TID 0000.0001) %MON time_secondsf                =   4.2500000000000E+04
(PID.TID 0000.0001) %MON dynstat_eta_max              =   1.1377643819711E-04
(PID.TID 0000.0001) %MON dynstat_eta_min              =  -1.8196568193942E-04
(PID.TID 0000.0001) %MON dynstat_eta_mean             =   4.6609386141299E-17
(PID.TID 0000.0001) %MON dynstat_eta_sd               =   5.0063311920471E-05
(PID.TID 0000.0001) %MON dynstat_eta_del2             =   1.7283517414909E-06
(PID.TID 0000.0001) %MON dynstat_uvel_max             =   2.2366982447329E-02
(PID.TID 0000.0001) %MON dynstat_uvel_min             =  -2.2105063347779E-02
(PID.TID 0000.0001) %MON dynstat_uvel_mean            =   3.6300491389109E-08
(PID.TID 0000.0001) %MON dynstat_uvel_sd              =   7.4384117192829E-03
(PID.TID 0000.0001) %MON dynstat_uvel_del2            =   3.1116835145282E-04
(PID.TID 0000.0001) %MON dynstat_vvel_max             =   0.0000000000000E+00
(PID.TID 0000.0001) %MON dynstat_vvel_min             =   0.0000000000000E+00
(PID.TID 0000.0001) %MON dynstat_vvel_mean            =   0.0000000000000E+00
(PID.TID 0000.0001) %MON dynstat_vvel_sd              =   0.0000000000000E+00
(PID.TID 0000.0001) %MON dynstat_vvel_del2            =   0.0000000000000E+00
(PID.TID 0000.0001) %MON dynstat_wvel_max             =   3.1788606885599E-03
(PID.TID 0000.0001) %MON dynstat_wvel_min             =  -2.7811975226175E-03
(PID.TID 0000.0001) %MON dynstat_wvel_mean            =   3.6591972488734E-20
(PID.TID 0000.0001) %MON dynstat_wvel_sd              =   1.0023917233867E-03
(PID.TID 0000.0001) %MON dynstat_wvel_del2            =   5.7903922578202E-05
(PID.TID 0000.0001) %MON dynstat_theta_max            =   4.8144260986551E-02
(PID.TID 0000.0001) %MON dynstat_theta_min            =  -4.8695739013449E-02
(PID.TID 0000.0001) %MON dynstat_theta_mean           =   1.3932292023853E-02
(PID.TID 0000.0001) %MON dynstat_theta_sd             =   2.7805576514456E-02
(PID.TID 0000.0001) %MON dynstat_theta_del2           =   1.6715170339991E-04
(PID.TID 0000.0001) %MON dynstat_salt_max             =   3.5000000000000E+01
(PID.TID 0000.0001) %MON dynstat_salt_min             =   0.0000000000000E+00
(PID.TID 0000.0001) %MON dynstat_salt_mean            =   3.3847052152665E+01
(PID.TID 0000.0001) %MON dynstat_salt_sd              =   6.2469101096520E+00
(PID.TID 0000.0001) %MON dynstat_salt_del2            =   5.6726094003241E-01
(PID.TID 0000.0001) %MON advcfl_uvel_max              =   5.1292704108537E-02
(PID.TID 0000.0001) %MON advcfl_vvel_max              =   0.0000000000000E+00
(PID.TID 0000.0001) %MON advcfl_wvel_max              =   1.5894303442799E-01
(PID.TID 0000.0001) %MON advcfl_W_hf_max              =   1.5894303442799E-01
(PID.TID 0000.0001) %MON pe_b_mean                    =   1.1946530597757E-10
(PID.TID 0000.0001) %MON ke_max                       =   2.4190377800525E-04
(PID.TID 0000.0001) %MON ke_mean                      =   2.6753661005669E-05
(PID.TID 0000.0001) %MON ke_vol                       =   6.6188141628594E+09
(PID.TID 0000.0001) %MON vort_r_min                   =   0.0000000000000E+00
(PID.TID 0000.0001) %MON vort_r_max                   =   0.0000000000000E+00
(PID.TID 0000.0001) %MON vort_a_mean                  =   0.0000000000000E+00
(PID.TID 0000.0001) %MON vort_a_sd                    =   0.0000000000000E+00
(PID.TID 0000.0001) %MON vort_p_mean                  =   0.0000000000000E+00
(PID.TID 0000.0001) %MON vort_p_sd                    =   0.0000000000000E+00
(PID.TID 0000.0001) %MON surfExpan_theta_mean         =  -2.9182476416469E-12
(PID.TID 0000.0001) %MON surfExpan_salt_mean          =   6.0155134312507E-19
(PID.TID 0000.0001) // =======================================================
(PID.TID 0000.0001) // End MONITOR dynamic field statistics
(PID.TID 0000.0001) // =======================================================
 cg2d: Sum(rhs),rhsMax =  -1.81189156560346E-14  6.69753552741799E-04
(PID.TID 0000.0001)                    cg2d_init_res =    1.20823389869294E-01
(PID.TID 0000.0001)                       cg2d_iters =    58
(PID.TID 0000.0001)                         cg2d_res =    1.36963253156348E-19
 cg2d: Sum(rhs),rhsMax =  -1.55744422350099E-14  6.69154385741365E-04
 cg2d: Sum(rhs),rhsMax =  -2.06404446485842E-14  7.08885103071540E-04
 cg2d: Sum(rhs),rhsMax =  -2.18097024815012E-14  6.97539124176102E-04
 cg2d: Sum(rhs),rhsMax =  -2.21639858701515E-14  7.27852790451028E-04
(PID.TID 0000.0001) // =======================================================
(PID.TID 0000.0001) // Begin MONITOR dynamic field statistics
(PID.TID 0000.0001) // =======================================================
(PID.TID 0000.0001) %MON time_tsnumber                =                    90
(PID.TID 0000.0001) %MON time_secondsf                =   4.5000000000000E+04
(PID.TID 0000.0001) %MON dynstat_eta_max              =   1.1385299429833E-04
(PID.TID 0000.0001) %MON dynstat_eta_min              =  -1.8326362708576E-04
(PID.TID 0000.0001) %MON dynstat_eta_mean             =   5.9189811311604E-17
(PID.TID 0000.0001) %MON dynstat_eta_sd               =   5.0529469969192E-05
(PID.TID 0000.0001) %MON dynstat_eta_del2             =   1.5747893939468E-06
(PID.TID 0000.0001) %MON dynstat_uvel_max             =   2.2282617892255E-02
(PID.TID 0000.0001) %MON dynstat_uvel_min             =  -2.2953179827867E-02
(PID.TID 0000.0001) %MON dynstat_uvel_mean            =   8.6397939756475E-09
(PID.TID 0000.0001) %MON dynstat_uvel_sd              =   7.3940064732785E-03
(PID.TID 0000.0001) %MON dynstat_uvel_del2            =   3.2815798473164E-04
(PID.TID 0000.0001) %MON dynstat_vvel_max             =   0.0000000000000E+00
(PID.TID 0000.0001) %MON dynstat_vvel_min             =   0.0000000000000E+00
(PID.TID 0000.0001) %MON dynstat_vvel_mean            =   0.0000000000000E+00
(PID.TID 0000.0001) %MON dynstat_vvel_sd              =   0.0000000000000E+00
(PID.TID 0000.0001) %MON dynstat_vvel_del2            =   0.0000000000000E+00
(PID.TID 0000.0001) %MON dynstat_wvel_max             =   3.1236067007237E-03
(PID.TID 0000.0001) %MON dynstat_wvel_min             =  -3.1849325914472E-03
(PID.TID 0000.0001) %MON dynstat_wvel_mean            =   2.2153373680373E-20
(PID.TID 0000.0001) %MON dynstat_wvel_sd              =   1.0312210408857E-03
(PID.TID 0000.0001) %MON dynstat_wvel_del2            =   8.5346864233733E-05
(PID.TID 0000.0001) %MON dynstat_theta_max            =   4.8478551783684E-02
(PID.TID 0000.0001) %MON dynstat_theta_min            =  -4.8361448216316E-02
(PID.TID 0000.0001) %MON dynstat_theta_mean           =   1.4002226280080E-02
(PID.TID 0000.0001) %MON dynstat_theta_sd             =   2.7748920874554E-02
(PID.TID 0000.0001) %MON dynstat_theta_del2           =   1.7807442772534E-04
(PID.TID 0000.0001) %MON dynstat_salt_max             =   3.5000000000000E+01
(PID.TID 0000.0001) %MON dynstat_salt_min             =   0.0000000000000E+00
(PID.TID 0000.0001) %MON dynstat_salt_mean            =   3.3847052152665E+01
(PID.TID 0000.0001) %MON dynstat_salt_sd              =   6.2469101096520E+00
(PID.TID 0000.0001) %MON dynstat_salt_del2            =   5.6726094003241E-01
(PID.TID 0000.0001) %MON advcfl_uvel_max              =   5.2636991334583E-02
(PID.TID 0000.0001) %MON advcfl_vvel_max              =   0.0000000000000E+00
(PID.TID 0000.0001) %MON advcfl_wvel_max              =   1.5924662957236E-01
(PID.TID 0000.0001) %MON advcfl_W_hf_max              =   1.5924662957236E-01
(PID.TID 0000.0001) %MON pe_b_mean                    =   1.2170043527923E-10
(PID.TID 0000.0001) %MON ke_max                       =   2.4118870525510E-04
(PID.TID 0000.0001) %MON ke_mean                      =   2.6435190496649E-05
(PID.TID 0000.0001) %MON ke_vol                       =   6.6188141628594E+09
(PID.TID 0000.0001) %MON vort_r_min                   =   0.0000000000000E+00
(PID.TID 0000.0001) %MON vort_r_max                   =   0.0000000000000E+00
(PID.TID 0000.0001) %MON vort_a_mean                  =   0.0000000000000E+00
(PID.TID 0000.0001) %MON vort_a_sd                    =   0.0000000000000E+00
(PID.TID 0000.0001) %MON vort_p_mean                  =   0.0000000000000E+00
(PID.TID 0000.0001) %MON vort_p_sd                    =   0.0000000000000E+00
(PID.TID 0000.0001) %MON surfExpan_theta_mean         =   1.7399469027107E-12
(PID.TID 0000.0001) %MON surfExpan_salt_mean          =   6.7559065743480E-19
(PID.TID 0000.0001) // =======================================================
(PID.TID 0000.0001) // End MONITOR dynamic field statistics
(PID.TID 0000.0001) // =======================================================
 cg2d: Sum(rhs),rhsMax =  -1.70506241504303E-14  7.06721955295271E-04
(PID.TID 0000.0001)                    cg2d_init_res =    1.49729259621885E-01
(PID.TID 0000.0001)                       cg2d_iters =    58
(PID.TID 0000.0001)                         cg2d_res =    2.52649762701879E-19
 cg2d: Sum(rhs),rhsMax =  -9.56894983985667E-15  7.28499858415750E-04
 cg2d: Sum(rhs),rhsMax =  -1.02793479023894E-14  6.98714133597629E-04
 cg2d: Sum(rhs),rhsMax =  -1.58122111595677E-14  7.12965035380599E-04
 cg2d: Sum(rhs),rhsMax =  -1.41344184620418E-14  6.75746735844011E-04
(PID.TID 0000.0001) // =======================================================
(PID.TID 0000.0001) // Begin MONITOR dynamic field statistics
(PID.TID 0000.0001) // =======================================================
(PID.TID 0000.0001) %MON time_tsnumber                =                    95
(PID.TID 0000.0001) %MON time_secondsf                =   4.7500000000000E+04
(PID.TID 0000.0001) %MON dynstat_eta_max              =   1.1103064097898E-04
(PID.TID 0000.0001) %MON dynstat_eta_min              =  -1.8268911538889E-04
(PID.TID 0000.0001) %MON dynstat_eta_mean             =   3.9171305355863E-17
(PID.TID 0000.0001) %MON dynstat_eta_sd               =   5.1094388900138E-05
(PID.TID 0000.0001) %MON dynstat_eta_del2             =   1.6462705937734E-06
(PID.TID 0000.0001) %MON dynstat_uvel_max             =   2.2263519121248E-02
(PID.TID 0000.0001) %MON dynstat_uvel_min             =  -2.4165063849046E-02
(PID.TID 0000.0001) %MON dynstat_uvel_mean            =   9.1724179286096E-09
(PID.TID 0000.0001) %MON dynstat_uvel_sd              =   7.4447162969103E-03
(PID.TID 0000.0001) %MON dynstat_uvel_del2            =   3.3150358107163E-04
(PID.TID 0000.0001) %MON dynstat_vvel_max             =   0.0000000000000E+00
(PID.TID 0000.0001) %MON dynstat_vvel_min             =   0.0000000000000E+00
(PID.TID 0000.0001) %MON dynstat_vvel_mean            =   0.0000000000000E+00
(PID.TID 0000.0001) %MON dynstat_vvel_sd              =   0.0000000000000E+00
(PID.TID 0000.0001) %MON dynstat_vvel_del2            =   0.0000000000000E+00
(PID.TID 0000.0001) %MON dynstat_wvel_max             =   3.0345269839576E-03
(PID.TID 0000.0001) %MON dynstat_wvel_min             =  -3.2054272155915E-03
(PID.TID 0000.0001) %MON dynstat_wvel_mean            =   5.5438973840370E-20
(PID.TID 0000.0001) %MON dynstat_wvel_sd              =   1.1410839629086E-03
(PID.TID 0000.0001) %MON dynstat_wvel_del2            =   1.1067822780892E-04
(PID.TID 0000.0001) %MON dynstat_theta_max            =   4.8805643906507E-02
(PID.TID 0000.0001) %MON dynstat_theta_min            =  -4.8034356093493E-02
(PID.TID 0000.0001) %MON dynstat_theta_mean           =   1.4133418250141E-02
(PID.TID 0000.0001) %MON dynstat_theta_sd             =   2.7671204095153E-02
(PID.TID 0000.0001) %MON dynstat_theta_del2           =   1.8860853916718E-04
(PID.TID 0000.0001) %MON dynstat_salt_max             =   3.5000000000000E+01
(PID.TID 0000.0001) %MON dynstat_salt_min             =   0.0000000000000E+00
(PID.TID 0000.0001) %MON dynstat_salt_mean            =   3.3847052152665E+01
(PID.TID 0000.0001) %MON dynstat_salt_sd              =   6.2469101096520E+00
(PID.TID 0000.0001) %MON dynstat_salt_del2            =   5.6726094003241E-01
(PID.TID 0000.0001) %MON advcfl_uvel_max              =   5.5416123864355E-02
(PID.TID 0000.0001) %MON advcfl_vvel_max              =   0.0000000000000E+00
(PID.TID 0000.0001) %MON advcfl_wvel_max              =   1.6027136077958E-01
(PID.TID 0000.0001) %MON advcfl_W_hf_max              =   1.6027136077958E-01
(PID.TID 0000.0001) %MON pe_b_mean                    =   1.2443686599517E-10
(PID.TID 0000.0001) %MON ke_max                       =   2.8272352237136E-04
(PID.TID 0000.0001) %MON ke_mean                      =   2.6799031004279E-05
(PID.TID 0000.0001) %MON ke_vol                       =   6.6188141628594E+09
(PID.TID 0000.0001) %MON vort_r_min                   =   0.0000000000000E+00
(PID.TID 0000.0001) %MON vort_r_max                   =   0.0000000000000E+00
(PID.TID 0000.0001) %MON vort_a_mean                  =   0.0000000000000E+00
(PID.TID 0000.0001) %MON vort_a_sd                    =   0.0000000000000E+00
(PID.TID 0000.0001) %MON vort_p_mean                  =   0.0000000000000E+00
(PID.TID 0000.0001) %MON vort_p_sd                    =   0.0000000000000E+00
(PID.TID 0000.0001) %MON surfExpan_theta_mean         =  -1.6996637278572E-12
(PID.TID 0000.0001) %MON surfExpan_salt_mean          =   2.0837746120262E-18
(PID.TID 0000.0001) // =======================================================
(PID.TID 0000.0001) // End MONITOR dynamic field statistics
(PID.TID 0000.0001) // =======================================================
 cg2d: Sum(rhs),rhsMax =  -1.50652399084385E-14  6.83555675225365E-04
(PID.TID 0000.0001)                    cg2d_init_res =    1.11899932578406E-01
(PID.TID 0000.0001)                       cg2d_iters =    58
(PID.TID 0000.0001)                         cg2d_res =    1.84911462288078E-19
 cg2d: Sum(rhs),rhsMax =  -1.37171090458521E-14  6.40200554658690E-04
 cg2d: Sum(rhs),rhsMax =  -1.12422210755102E-14  6.42718766524701E-04
 cg2d: Sum(rhs),rhsMax =  -1.69625191713887E-14  5.94567039336309E-04
 cg2d: Sum(rhs),rhsMax =  -1.91622163015631E-14  5.93006504923991E-04
(PID.TID 0000.0001) // =======================================================
(PID.TID 0000.0001) // Begin MONITOR dynamic field statistics
(PID.TID 0000.0001) // =======================================================
(PID.TID 0000.0001) %MON time_tsnumber                =                   100
(PID.TID 0000.0001) %MON time_secondsf                =   5.0000000000000E+04
(PID.TID 0000.0001) %MON dynstat_eta_max              =   1.0459056776229E-04
(PID.TID 0000.0001) %MON dynstat_eta_min              =  -1.8947746159092E-04
(PID.TID 0000.0001) %MON dynstat_eta_mean             =   4.3172590386378E-17
(PID.TID 0000.0001) %MON dynstat_eta_sd               =   5.1636659229074E-05
(PID.TID 0000.0001) %MON dynstat_eta_del2             =   1.9786477577827E-06
(PID.TID 0000.0001) %MON dynstat_uvel_max             =   2.1913427972176E-02
(PID.TID 0000.0001) %MON dynstat_uvel_min             =  -2.7314510736345E-02
(PID.TID 0000.0001) %MON dynstat_uvel_mean            =  -9.0226732757806E-09
(PID.TID 0000.0001) %MON dynstat_uvel_sd              =   7.6601056343396E-03
(PID.TID 0000.0001) %MON dynstat_uvel_del2            =   3.3602321183535E-04
(PID.TID 0000.0001) %MON dynstat_vvel_max             =   0.0000000000000E+00
(PID.TID 0000.0001) %MON dynstat_vvel_min             =   0.0000000000000E+00
(PID.TID 0000.0001) %MON dynstat_vvel_mean            =   0.0000000000000E+00
(PID.TID 0000.0001) %MON dynstat_vvel_sd              =   0.0000000000000E+00
(PID.TID 0000.0001) %MON dynstat_vvel_del2            =   0.0000000000000E+00
(PID.TID 0000.0001) %MON dynstat_wvel_max             =   4.7189995197283E-03
(PID.TID 0000.0001) %MON dynstat_wvel_min             =  -3.2371964629251E-03
(PID.TID 0000.0001) %MON dynstat_wvel_mean            =   1.1637482921723E-20
(PID.TID 0000.0001) %MON dynstat_wvel_sd              =   1.2791650025327E-03
(PID.TID 0000.0001) %MON dynstat_wvel_del2            =   1.2939743062467E-04
(PID.TID 0000.0001) %MON dynstat_theta_max            =   4.9085322872843E-02
(PID.TID 0000.0001) %MON dynstat_theta_min            =  -4.7754677127157E-02
(PID.TID 0000.0001) %MON dynstat_theta_mean           =   1.4309462769278E-02
(PID.TID 0000.0001) %MON dynstat_theta_sd             =   2.7583333826495E-02
(PID.TID 0000.0001) %MON dynstat_theta_del2           =   1.9066248188513E-04
(PID.TID 0000.0001) %MON dynstat_salt_max             =   3.5000000000000E+01
(PID.TID 0000.0001) %MON dynstat_salt_min             =   0.0000000000000E+00
(PID.TID 0000.0001) %MON dynstat_salt_mean            =   3.3847052152665E+01
(PID.TID 0000.0001) %MON dynstat_salt_sd              =   6.2469101096520E+00
(PID.TID 0000.0001) %MON dynstat_salt_del2            =   5.6726094003241E-01
(PID.TID 0000.0001) %MON advcfl_uvel_max              =   6.2638539658535E-02
(PID.TID 0000.0001) %MON advcfl_vvel_max              =   0.0000000000000E+00
(PID.TID 0000.0001) %MON advcfl_wvel_max              =   2.3594997598641E-01
(PID.TID 0000.0001) %MON advcfl_W_hf_max              =   2.3594997598641E-01
(PID.TID 0000.0001) %MON pe_b_mean                    =   1.2709220642048E-10
(PID.TID 0000.0001) %MON ke_max                       =   2.8794362280809E-04
(PID.TID 0000.0001) %MON ke_mean                      =   2.8372153503842E-05
(PID.TID 0000.0001) %MON ke_vol                       =   6.6188141628594E+09
(PID.TID 0000.0001) %MON vort_r_min                   =   0.0000000000000E+00
(PID.TID 0000.0001) %MON vort_r_max                   =   0.0000000000000E+00
(PID.TID 0000.0001) %MON vort_a_mean                  =   0.0000000000000E+00
(PID.TID 0000.0001) %MON vort_a_sd                    =   0.0000000000000E+00
(PID.TID 0000.0001) %MON vort_p_mean                  =   0.0000000000000E+00
(PID.TID 0000.0001) %MON vort_p_sd                    =   0.0000000000000E+00
(PID.TID 0000.0001) %MON surfExpan_theta_mean         =  -1.7117880507944E-13
(PID.TID 0000.0001) %MON surfExpan_salt_mean          =   1.1405814295501E-18
(PID.TID 0000.0001) // =======================================================
(PID.TID 0000.0001) // End MONITOR dynamic field statistics
(PID.TID 0000.0001) // =======================================================
(PID.TID 0000.0001) %CHECKPOINT       100 ckptA
(PID.TID 0000.0001)   Seconds in section "ALL                    [THE_MODEL_MAIN]":
(PID.TID 0000.0001)           User time:  4.36000013
(PID.TID 0000.0001)         System time:  0.0199999996
(PID.TID 0000.0001)     Wall clock time:  4.41174901
(PID.TID 0000.0001)          No. starts: 1
(PID.TID 0000.0001)           No. stops: 1
(PID.TID 0000.0001)   Seconds in section "INITIALISE_FIXED       [THE_MODEL_MAIN]":
(PID.TID 0000.0001)           User time:  0.0299999993
(PID.TID 0000.0001)         System time:  0.00999999978
(PID.TID 0000.0001)     Wall clock time:  0.0469579697
(PID.TID 0000.0001)          No. starts: 1
(PID.TID 0000.0001)           No. stops: 1
(PID.TID 0000.0001)   Seconds in section "THE_MAIN_LOOP          [THE_MODEL_MAIN]":
(PID.TID 0000.0001)           User time:  4.31000015
(PID.TID 0000.0001)         System time:  0.00999999978
(PID.TID 0000.0001)     Wall clock time:  4.34958303
(PID.TID 0000.0001)          No. starts: 1
(PID.TID 0000.0001)           No. stops: 1
(PID.TID 0000.0001)   Seconds in section "INITIALISE_VARIA    [THE_MAIN_LOOP]":
(PID.TID 0000.0001)           User time:  0.0200000014
(PID.TID 0000.0001)         System time:  0.
(PID.TID 0000.0001)     Wall clock time:  0.0258820057
(PID.TID 0000.0001)          No. starts: 1
(PID.TID 0000.0001)           No. stops: 1
(PID.TID 0000.0001)   Seconds in section "MONITOR             [THE_MAIN_LOOP]":
(PID.TID 0000.0001)           User time:  0.
(PID.TID 0000.0001)         System time:  0.
(PID.TID 0000.0001)     Wall clock time:  0.00309896469
(PID.TID 0000.0001)          No. starts: 1
(PID.TID 0000.0001)           No. stops: 1
(PID.TID 0000.0001)   Seconds in section "DO_THE_MODEL_IO     [THE_MAIN_LOOP]":
(PID.TID 0000.0001)           User time:  0.
(PID.TID 0000.0001)         System time:  0.
(PID.TID 0000.0001)     Wall clock time:  0.00327396393
(PID.TID 0000.0001)          No. starts: 1
(PID.TID 0000.0001)           No. stops: 1
(PID.TID 0000.0001)   Seconds in section "MAIN LOOP           [THE_MAIN_LOOP]":
(PID.TID 0000.0001)           User time:  4.29000015
(PID.TID 0000.0001)         System time:  0.00999999978
(PID.TID 0000.0001)     Wall clock time:  4.31721306
(PID.TID 0000.0001)          No. starts: 1
(PID.TID 0000.0001)           No. stops: 1
(PID.TID 0000.0001)   Seconds in section "FORWARD_STEP        [THE_MAIN_LOOP]":
(PID.TID 0000.0001)           User time:  4.29000015
(PID.TID 0000.0001)         System time:  0.00999999978
(PID.TID 0000.0001)     Wall clock time:  4.31514239
(PID.TID 0000.0001)          No. starts: 100
(PID.TID 0000.0001)           No. stops: 100
(PID.TID 0000.0001)   Seconds in section "UPDATE_ETAH        [FORWARD_STEP]":
(PID.TID 0000.0001)           User time:  0.
(PID.TID 0000.0001)         System time:  0.
(PID.TID 0000.0001)     Wall clock time:  0.00662755966
(PID.TID 0000.0001)          No. starts: 100
(PID.TID 0000.0001)           No. stops: 100
(PID.TID 0000.0001)   Seconds in section "CALC_SURF_DR      [FORWARD_STEP]":
(PID.TID 0000.0001)           User time:  0.00999999046
(PID.TID 0000.0001)         System time:  0.
(PID.TID 0000.0001)     Wall clock time:  0.0179965496
(PID.TID 0000.0001)          No. starts: 100
(PID.TID 0000.0001)           No. stops: 100
(PID.TID 0000.0001)   Seconds in section "EXTERNAL_FIELDS_LOAD[FORWARD_STEP]":
(PID.TID 0000.0001)           User time:  0.
(PID.TID 0000.0001)         System time:  0.
(PID.TID 0000.0001)     Wall clock time:  0.00206017494
(PID.TID 0000.0001)          No. starts: 100
(PID.TID 0000.0001)           No. stops: 100
(PID.TID 0000.0001)   Seconds in section "THERMODYNAMICS      [FORWARD_STEP]":
(PID.TID 0000.0001)           User time:  1.23999939
(PID.TID 0000.0001)         System time:  0.
(PID.TID 0000.0001)     Wall clock time:  1.26166523
(PID.TID 0000.0001)          No. starts: 100
(PID.TID 0000.0001)           No. stops: 100
(PID.TID 0000.0001)   Seconds in section "BLOCKING_EXCHANGES  [FORWARD_STEP]":
(PID.TID 0000.0001)           User time:  0.310000606
(PID.TID 0000.0001)         System time:  0.
(PID.TID 0000.0001)     Wall clock time:  0.315723062
(PID.TID 0000.0001)          No. starts: 200
(PID.TID 0000.0001)           No. stops: 200
(PID.TID 0000.0001)   Seconds in section "DYNAMICS            [FORWARD_STEP]":
(PID.TID 0000.0001)           User time:  1.75999928
(PID.TID 0000.0001)         System time:  0.
(PID.TID 0000.0001)     Wall clock time:  1.74400938
(PID.TID 0000.0001)          No. starts: 100
(PID.TID 0000.0001)           No. stops: 100
(PID.TID 0000.0001)   Seconds in section "UPDATE_SURF_DR     [FORWARD_STEP]":
(PID.TID 0000.0001)           User time:  0.0199999809
(PID.TID 0000.0001)         System time:  0.
(PID.TID 0000.0001)     Wall clock time:  0.0131056309
(PID.TID 0000.0001)          No. starts: 100
(PID.TID 0000.0001)           No. stops: 100
(PID.TID 0000.0001)   Seconds in section "UPDATE_CG2D        [FORWARD_STEP]":
(PID.TID 0000.0001)           User time:  0.0200002193
(PID.TID 0000.0001)         System time:  0.
(PID.TID 0000.0001)     Wall clock time:  0.0332106352
(PID.TID 0000.0001)          No. starts: 100
(PID.TID 0000.0001)           No. stops: 100
(PID.TID 0000.0001)   Seconds in section "SOLVE_FOR_PRESSURE  [FORWARD_STEP]":
(PID.TID 0000.0001)           User time:  0.56000036
(PID.TID 0000.0001)         System time:  0.
(PID.TID 0000.0001)     Wall clock time:  0.571131825
(PID.TID 0000.0001)          No. starts: 100
(PID.TID 0000.0001)           No. stops: 100
(PID.TID 0000.0001)   Seconds in section "THE_CORRECTION_STEP [FORWARD_STEP]":
(PID.TID 0000.0001)           User time:  0.240000084
(PID.TID 0000.0001)         System time:  0.
(PID.TID 0000.0001)     Wall clock time:  0.22179389
(PID.TID 0000.0001)          No. starts: 100
(PID.TID 0000.0001)           No. stops: 100
(PID.TID 0000.0001)   Seconds in section "MONITOR             [FORWARD_STEP]":
(PID.TID 0000.0001)           User time:  0.0900000334
(PID.TID 0000.0001)         System time:  0.
(PID.TID 0000.0001)     Wall clock time:  0.0657600164
(PID.TID 0000.0001)          No. starts: 100
(PID.TID 0000.0001)           No. stops: 100
(PID.TID 0000.0001)   Seconds in section "DO_THE_MODEL_IO     [FORWARD_STEP]":
(PID.TID 0000.0001)           User time:  0.0100002289
(PID.TID 0000.0001)         System time:  0.00999999978
(PID.TID 0000.0001)     Wall clock time:  0.0283368826
(PID.TID 0000.0001)          No. starts: 100
(PID.TID 0000.0001)           No. stops: 100
(PID.TID 0000.0001)   Seconds in section "WRITE_CHECKPOINT    [FORWARD_STEP]":
(PID.TID 0000.0001)           User time:  0.
(PID.TID 0000.0001)         System time:  0.
(PID.TID 0000.0001)     Wall clock time:  0.00216639042
(PID.TID 0000.0001)          No. starts: 100
(PID.TID 0000.0001)           No. stops: 100
(PID.TID 0000.0001)   Seconds in section "WRITE_CHECKPOINT       [THE_MODEL_MAIN]":
(PID.TID 0000.0001)           User time:  0.0199999809
(PID.TID 0000.0001)         System time:  0.
(PID.TID 0000.0001)     Wall clock time:  0.0151039362
(PID.TID 0000.0001)          No. starts: 1
(PID.TID 0000.0001)           No. stops: 1
(PID.TID 0000.0001) // ======================================================
(PID.TID 0000.0001) // Tile <-> Tile communication statistics
(PID.TID 0000.0001) // ======================================================
(PID.TID 0000.0001) // o Tile number: 000001
(PID.TID 0000.0001) //         No. X exchanges =              0
(PID.TID 0000.0001) //            Max. X spins =              0
(PID.TID 0000.0001) //            Min. X spins =     1000000000
(PID.TID 0000.0001) //          Total. X spins =              0
(PID.TID 0000.0001) //            Avg. X spins =       0.00E+00
(PID.TID 0000.0001) //         No. Y exchanges =              0
(PID.TID 0000.0001) //            Max. Y spins =              0
(PID.TID 0000.0001) //            Min. Y spins =     1000000000
(PID.TID 0000.0001) //          Total. Y spins =              0
(PID.TID 0000.0001) //            Avg. Y spins =       0.00E+00
(PID.TID 0000.0001) // o Tile number: 000002
(PID.TID 0000.0001) //         No. X exchanges =              0
(PID.TID 0000.0001) //            Max. X spins =              0
(PID.TID 0000.0001) //            Min. X spins =     1000000000
(PID.TID 0000.0001) //          Total. X spins =              0
(PID.TID 0000.0001) //            Avg. X spins =       0.00E+00
(PID.TID 0000.0001) //         No. Y exchanges =              0
(PID.TID 0000.0001) //            Max. Y spins =              0
(PID.TID 0000.0001) //            Min. Y spins =     1000000000
(PID.TID 0000.0001) //          Total. Y spins =              0
(PID.TID 0000.0001) //            Avg. Y spins =       0.00E+00
(PID.TID 0000.0001) // o Thread number: 000001
(PID.TID 0000.0001) //            No. barriers =          78810
(PID.TID 0000.0001) //      Max. barrier spins =              1
(PID.TID 0000.0001) //      Min. barrier spins =              1
(PID.TID 0000.0001) //     Total barrier spins =          78810
(PID.TID 0000.0001) //      Avg. barrier spins =       1.00E+00
