(PID.TID 0000.0001) 
(PID.TID 0000.0001) // ======================================================
(PID.TID 0000.0001) //                      MITgcm UV
(PID.TID 0000.0001) //                      =========
(PID.TID 0000.0001) // ======================================================
(PID.TID 0000.0001) // execution environment starting up...
(PID.TID 0000.0001) // Run starting Wed Apr  1 14:19:48 1998
(PID.TID 0000.0001) // on melville.lcs.mit.edu
(PID.TID 0000.0001) // account cnh
(PID.TID 0000.0001) // MITgcm UV Release: $Name:  $
(PID.TID 0000.0001) 
(PID.TID 0000.0001) // =======================================================
(PID.TID 0000.0001) // Execution Environment parameter file "eedata"
(PID.TID 0000.0001) // =======================================================
(PID.TID 0000.0001) ># Example "eedata" file
(PID.TID 0000.0001) ># Lines beginning "#" are comments
(PID.TID 0000.0001) ># nTx - No. threads per process in X
(PID.TID 0000.0001) ># nTy - No. threads per process in Y
(PID.TID 0000.0001) > &EEPARMS
(PID.TID 0000.0001) > &
(PID.TID 0000.0001) ># Note: Some systems use & as the
(PID.TID 0000.0001) ># namelist terminator. Other systems
(PID.TID 0000.0001) ># use a / character (as shown here).
(PID.TID 0000.0001) 
(PID.TID 0000.0001) // =======================================================
(PID.TID 0000.0001) // Computational Grid Specification ( see files "SIZE.h" )
(PID.TID 0000.0001) //                                  ( and "eedata"       )
(PID.TID 0000.0001) // =======================================================
(PID.TID 0000.0001)      nPx =    1 ; /* No. processes in X */
(PID.TID 0000.0001)      nPy =    1 ; /* No. processes in Y */
(PID.TID 0000.0001)      nSx =    1 ; /* No. tiles in X per process */
(PID.TID 0000.0001)      nSy =    1 ; /* No. tiles in Y per process */
(PID.TID 0000.0001)      sNx =   60 ; /* Tile size in X */
(PID.TID 0000.0001)      sNy =    1 ; /* Tile size in Y */
(PID.TID 0000.0001)      OLx =    3 ; /* Tile overlap distance in X */
(PID.TID 0000.0001)      OLy =    3 ; /* Tile overlap distance in Y */
(PID.TID 0000.0001)      nTx =    1 ; /* No. threads in X per process */
(PID.TID 0000.0001)      nTy =    1 ; /* No. threads in Y per process */
(PID.TID 0000.0001)       Nr =   20 ; /* No. levels in the vertical   */
(PID.TID 0000.0001)       nX =   60 ; /* Total domain size in X ( = nPx*nSx*sNx ) */
(PID.TID 0000.0001)       nY =    1 ; /* Total domain size in Y ( = nPy*nSy*sNy ) */
(PID.TID 0000.0001)   nTiles =    1 ; /* Total no. tiles per process ( = nSx*nSy ) */
(PID.TID 0000.0001)   nProcs =    1 ; /* Total no. processes ( = nPx*nPy ) */
(PID.TID 0000.0001) nThreads =    1 ; /* Total no. threads per process ( = nTx*nTy ) */
(PID.TID 0000.0001) usingMPI =    F ; /* Flag used to control whether MPI is in use */
(PID.TID 0000.0001)                   /*  note: To execute a program with MPI calls */
(PID.TID 0000.0001)                   /*  it must be launched appropriately e.g     */
(PID.TID 0000.0001)                   /*  "mpirun -np 64 ......"                    */
(PID.TID 0000.0001) 
(PID.TID 0000.0001) // ======================================================
(PID.TID 0000.0001) // Mapping of tiles to threads
(PID.TID 0000.0001) // ======================================================
(PID.TID 0000.0001) // -o- Thread   1, tiles (   1:   1,   1:   1)
(PID.TID 0000.0001) 
(PID.TID 0000.0001) // ======================================================
(PID.TID 0000.0001) // Tile <-> Tile connectvity table
(PID.TID 0000.0001) // ======================================================
(PID.TID 0000.0001) // Tile number: 000001 (process no. = 000001)
(PID.TID 0000.0001) //        WEST: Tile = 000001, Process = 000001, Comm = put
(PID.TID 0000.0001) //                bi = 000001, bj = 000001
(PID.TID 0000.0001) //        EAST: Tile = 000001, Process = 000001, Comm = put
(PID.TID 0000.0001) //                bi = 000001, bj = 000001
(PID.TID 0000.0001) //       SOUTH: Tile = 000001, Process = 000001, Comm = put
(PID.TID 0000.0001) //                bi = 000001, bj = 000001
(PID.TID 0000.0001) //       NORTH: Tile = 000001, Process = 000001, Comm = put
(PID.TID 0000.0001) //                bi = 000001, bj = 000001
(PID.TID 0000.0001) 
(PID.TID 0000.0001) // =======================================================
(PID.TID 0000.0001) // Model parameter file "data"
(PID.TID 0000.0001) // =======================================================
(PID.TID 0000.0001) ># ====================
(PID.TID 0000.0001) ># | Model parameters |
(PID.TID 0000.0001) ># ====================
(PID.TID 0000.0001) >#
(PID.TID 0000.0001) ># Continuous equation parameters
(PID.TID 0000.0001) > &PARM01
(PID.TID 0000.0001) > Tref = 0.04842, 0.0433231, 0.0382263, 0.0331295,
(PID.TID 0000.0001) >        0.0280326, 0.0229358, 0.0178389, 0.0127421,
(PID.TID 0000.0001) >        0.00764526, 0.00254842, -0.00254842, -0.00764526,
(PID.TID 0000.0001) >       -0.0127421, -0.0178389, -0.0229358, -0.0280326,
(PID.TID 0000.0001) >       -0.0331295, -0.0382263, -0.0433231, -0.04842,
(PID.TID 0000.0001) > sRef= 20*35.,
(PID.TID 0000.0001) > viscAz=1.E-3,
(PID.TID 0000.0001) > viscAh=1.0E-2,
(PID.TID 0000.0001) > no_slip_sides=.FALSE.,
(PID.TID 0000.0001) > no_slip_bottom=.FALSE.,
(PID.TID 0000.0001) > viscA4=0.E12,
(PID.TID 0000.0001) > diffKhT=1.0E-2
(PID.TID 0000.0001) > diffKzT=1.E-3,
(PID.TID 0000.0001) > diffKhS=1.E3,
(PID.TID 0000.0001) > diffKzS=1.E-5,
(PID.TID 0000.0001) > f0=0.0,
(PID.TID 0000.0001) > beta=0.E-11,
(PID.TID 0000.0001) > tAlpha=2.E-4,
(PID.TID 0000.0001) > sBeta =0.E-4,
(PID.TID 0000.0001) > gravity=9.81,
(PID.TID 0000.0001) > gBaro=9.81,
(PID.TID 0000.0001) > rigidLid=.FALSE.,
(PID.TID 0000.0001) > implicitFreeSurface=.TRUE.,
(PID.TID 0000.0001) > eosType='LINEAR',
(PID.TID 0000.0001) > nonHydrostatic=.FALSE.,
(PID.TID 0000.0001) > readBinaryPrec=64,
(PID.TID 0000.0001) > globalFiles=.TRUE.,
(PID.TID 0000.0001) > writeBinaryPrec=64,
(PID.TID 0000.0001) > writeStatePrec=64,
(PID.TID 0000.0001) > saltStepping=.FALSE.,
(PID.TID 0000.0001) > hFacMin=0.2,
(PID.TID 0000.0001) > implicSurfPress=0.5,
(PID.TID 0000.0001) > implicDiv2DFlow=0.5,
(PID.TID 0000.0001) > nonlinFreeSurf=3,
(PID.TID 0000.0001) > hFacInf=0.2,
(PID.TID 0000.0001) > hFacSup=1.8,
(PID.TID 0000.0001) > exactConserv=.TRUE.
(PID.TID 0000.0001) > &
(PID.TID 0000.0001) >
(PID.TID 0000.0001) ># Elliptic solver parameters
(PID.TID 0000.0001) > &PARM02
(PID.TID 0000.0001) > cg2dMaxIters=1000,
(PID.TID 0000.0001) > cg2dTargetResidual=1.E-13,
(PID.TID 0000.0001) > cg3dMaxIters=400,
(PID.TID 0000.0001) > cg3dTargetResidual=1.E-13,
(PID.TID 0000.0001) > &
(PID.TID 0000.0001) >
(PID.TID 0000.0001) ># Time stepping parameters
(PID.TID 0000.0001) > &PARM03
(PID.TID 0000.0001) > niter0=0,
(PID.TID 0000.0001) > nTimeSteps=100,
(PID.TID 0000.0001) > deltaT=500.,
(PID.TID 0000.0001) > abEps=0.1,
(PID.TID 0000.0001) > pChkptFreq=0.0,
(PID.TID 0000.0001) > chkptFreq=0.0,
(PID.TID 0000.0001) > dumpFreq=50000.,
(PID.TID 0000.0001) > monitorFreq=2500.,
(PID.TID 0000.0001) > &
(PID.TID 0000.0001) >
(PID.TID 0000.0001) ># Gridding parameters
(PID.TID 0000.0001) > &PARM04
(PID.TID 0000.0001) > usingCartesianGrid=.TRUE.,
(PID.TID 0000.0001) > usingSphericalPolarGrid=.FALSE.,
(PID.TID 0000.0001) > delXfile='delXvar'
(PID.TID 0000.0001) > delY=5.e3,
(PID.TID 0000.0001) > delZ=20*10.000000,
(PID.TID 0000.0001) > &
(PID.TID 0000.0001) >
(PID.TID 0000.0001) ># Input datasets
(PID.TID 0000.0001) > &PARM05
(PID.TID 0000.0001) > hydrogThetaFile='T.init',
(PID.TID 0000.0001) > bathyFile='topog.slope',
(PID.TID 0000.0001) > &
(PID.TID 0000.0001) 
(PID.TID 0000.0001) S/R INI_PARMS ; read PARM01 : OK
(PID.TID 0000.0001) S/R INI_PARMS ; read PARM02 : OK
(PID.TID 0000.0001) S/R INI_PARMS ; read PARM03 : OK
(PID.TID 0000.0001) S/R INI_PARMS ; read PARM04 : OK
(PID.TID 0000.0001) S/R INI_PARMS ; read PARM05 : OK
(PID.TID 0000.0001) %MON XC_max                       =   1.2972950819672E+04
(PID.TID 0000.0001) %MON XC_min                       =   1.0901639344262E+02
(PID.TID 0000.0001) %MON XC_mean                      =   6.5409836065574E+03
(PID.TID 0000.0001) %MON XC_sd                        =   3.7759141042143E+03
(PID.TID 0000.0001) %MON XG_max                       =   1.2863934426229E+04
(PID.TID 0000.0001) %MON XG_min                       =   5.6843418860808E-14
(PID.TID 0000.0001) %MON XG_mean                      =   6.4319672131147E+03
(PID.TID 0000.0001) %MON XG_sd                        =   3.7759141042143E+03
(PID.TID 0000.0001) %MON DXC_max                      =   2.1803278688525E+02
(PID.TID 0000.0001) %MON DXC_min                      =   2.1803278688525E+02
(PID.TID 0000.0001) %MON DXC_mean                     =   2.1803278688525E+02
(PID.TID 0000.0001) %MON DXC_sd                       =   2.5579538487364E-13
(PID.TID 0000.0001) %MON DXF_max                      =   2.1803278688525E+02
(PID.TID 0000.0001) %MON DXF_min                      =   2.1803278688525E+02
(PID.TID 0000.0001) %MON DXF_mean                     =   2.1803278688525E+02
(PID.TID 0000.0001) %MON DXF_sd                       =   2.5579538487364E-13
(PID.TID 0000.0001) %MON DXG_max                      =   2.1803278688525E+02
(PID.TID 0000.0001) %MON DXG_min                      =   2.1803278688525E+02
(PID.TID 0000.0001) %MON DXG_mean                     =   2.1803278688525E+02
(PID.TID 0000.0001) %MON DXG_sd                       =   2.5579538487364E-13
(PID.TID 0000.0001) %MON DXV_max                      =   2.1803278688525E+02
(PID.TID 0000.0001) %MON DXV_min                      =   2.1803278688525E+02
(PID.TID 0000.0001) %MON DXV_mean                     =   2.1803278688525E+02
(PID.TID 0000.0001) %MON DXV_sd                       =   2.5579538487364E-13
(PID.TID 0000.0001) %MON YC_max                       =   2.5000000000000E+03
(PID.TID 0000.0001) %MON YC_min                       =   2.5000000000000E+03
(PID.TID 0000.0001) %MON YC_mean                      =   2.5000000000000E+03
(PID.TID 0000.0001) %MON YC_sd                        =   0.0000000000000E+00
(PID.TID 0000.0001) %MON YG_max                       =   0.0000000000000E+00
(PID.TID 0000.0001) %MON YG_min                       =   0.0000000000000E+00
(PID.TID 0000.0001) %MON YG_mean                      =   0.0000000000000E+00
(PID.TID 0000.0001) %MON YG_sd                        =   0.0000000000000E+00
(PID.TID 0000.0001) %MON DYC_max                      =   5.0000000000000E+03
(PID.TID 0000.0001) %MON DYC_min                      =   5.0000000000000E+03
(PID.TID 0000.0001) %MON DYC_mean                     =   5.0000000000000E+03
(PID.TID 0000.0001) %MON DYC_sd                       =   0.0000000000000E+00
(PID.TID 0000.0001) %MON DYF_max                      =   5.0000000000000E+03
(PID.TID 0000.0001) %MON DYF_min                      =   5.0000000000000E+03
(PID.TID 0000.0001) %MON DYF_mean                     =   5.0000000000000E+03
(PID.TID 0000.0001) %MON DYF_sd                       =   0.0000000000000E+00
(PID.TID 0000.0001) %MON DYG_max                      =   5.0000000000000E+03
(PID.TID 0000.0001) %MON DYG_min                      =   5.0000000000000E+03
(PID.TID 0000.0001) %MON DYG_mean                     =   5.0000000000000E+03
(PID.TID 0000.0001) %MON DYG_sd                       =   0.0000000000000E+00
(PID.TID 0000.0001) %MON DYU_max                      =   5.0000000000000E+03
(PID.TID 0000.0001) %MON DYU_min                      =   5.0000000000000E+03
(PID.TID 0000.0001) %MON DYU_mean                     =   5.0000000000000E+03
(PID.TID 0000.0001) %MON DYU_sd                       =   0.0000000000000E+00
(PID.TID 0000.0001) %MON RA_max                       =   1.0901639344262E+06
(PID.TID 0000.0001) %MON RA_min                       =   1.0901639344262E+06
(PID.TID 0000.0001) %MON RA_mean                      =   1.0901639344262E+06
(PID.TID 0000.0001) %MON RA_sd                        =   1.6298145055771E-09
(PID.TID 0000.0001) %MON RAW_max                      =   1.0901639344262E+06
(PID.TID 0000.0001) %MON RAW_min                      =   1.0901639344262E+06
(PID.TID 0000.0001) %MON RAW_mean                     =   1.0901639344262E+06
(PID.TID 0000.0001) %MON RAW_sd                       =   1.6298145055771E-09
(PID.TID 0000.0001) %MON RAS_max                      =   1.0901639344262E+06
(PID.TID 0000.0001) %MON RAS_min                      =   1.0901639344262E+06
(PID.TID 0000.0001) %MON RAS_mean                     =   1.0901639344262E+06
(PID.TID 0000.0001) %MON RAS_sd                       =   1.6298145055771E-09
(PID.TID 0000.0001) %MON RAZ_max                      =   1.0901639344262E+06
(PID.TID 0000.0001) %MON RAZ_min                      =   1.0901639344262E+06
(PID.TID 0000.0001) %MON RAZ_mean                     =   1.0901639344262E+06
(PID.TID 0000.0001) %MON RAZ_sd                       =   1.6298145055771E-09
(PID.TID 0000.0001)  MDSREADFIELD: opening global file: topog.slope
(PID.TID 0000.0001) // =======================================================
(PID.TID 0000.0001) // Field Model R_low (ini_masks_etc) at iteration          1
(PID.TID 0000.0001) // CMIN =         -2.000000000000000E+02
(PID.TID 0000.0001) // CMAX =         -4.000000000000000E+01
(PID.TID 0000.0001) // CINT =          5.925925925925926E+00
(PID.TID 0000.0001) // SYMBOLS (CMIN->CMAX): -abcdefghijklmnopqrstuvwxyz+
(PID.TID 0000.0001) //                  0.0: .
(PID.TID 0000.0001) // RANGE I (Lo:Hi:Step):(  -2:  63:   1)
(PID.TID 0000.0001) // RANGE J (Lo:Hi:Step):(   4:  -2:  -1)
(PID.TID 0000.0001) // RANGE K (Lo:Hi:Step):(   1:   1:   1)
(PID.TID 0000.0001) // =======================================================
(PID.TID 0000.0001) K =   1
(PID.TID 0000.0001) //                I=7       I=17      I=27      I=37      I=47      I=57
(PID.TID 0000.0001) // |--J--|**0123456|890123456|890123456|890123456|890123456|890123456|890123
(PID.TID 0000.0001) //      4 ++.-----------abcdefghikkmnopqrstvwxyz++++++++++++++++++++++++.---
(PID.TID 0000.0001) //      3 ++.-----------abcdefghikkmnopqrstvwxyz++++++++++++++++++++++++.---
(PID.TID 0000.0001) //      2 ++.-----------abcdefghikkmnopqrstvwxyz++++++++++++++++++++++++.---
(PID.TID 0000.0001) //      1 ++.-----------abcdefghikkmnopqrstvwxyz++++++++++++++++++++++++.---
(PID.TID 0000.0001) //      0 ++.-----------abcdefghikkmnopqrstvwxyz++++++++++++++++++++++++.---
(PID.TID 0000.0001) //     -1 ++.-----------abcdefghikkmnopqrstvwxyz++++++++++++++++++++++++.---
(PID.TID 0000.0001) //     -2 ++.-----------abcdefghikkmnopqrstvwxyz++++++++++++++++++++++++.---
(PID.TID 0000.0001) // =======================================================
(PID.TID 0000.0001) // END OF FIELD                                          =
(PID.TID 0000.0001) // =======================================================
(PID.TID 0000.0001) 
(PID.TID 0000.0001) // =======================================================
(PID.TID 0000.0001) // Field Model Ro_surf (ini_masks_etc) at iteration          1
(PID.TID 0000.0001) // CMIN =          1.000000000000000E+32
(PID.TID 0000.0001) // CMAX =         -1.000000000000000E+32
(PID.TID 0000.0001) // CINT =          0.000000000000000E+00
(PID.TID 0000.0001) // SYMBOLS (CMIN->CMAX): -abcdefghijklmnopqrstuvwxyz+
(PID.TID 0000.0001) //                  0.0: .
(PID.TID 0000.0001) // RANGE I (Lo:Hi:Step):(  -2:  63:   1)
(PID.TID 0000.0001) // RANGE J (Lo:Hi:Step):(   4:  -2:  -1)
(PID.TID 0000.0001) // RANGE K (Lo:Hi:Step):(   1:   1:   1)
(PID.TID 0000.0001) // =======================================================
(PID.TID 0000.0001) K =   1
(PID.TID 0000.0001) //                I=7       I=17      I=27      I=37      I=47      I=57
(PID.TID 0000.0001) // |--J--|**0123456|890123456|890123456|890123456|890123456|890123456|890123
(PID.TID 0000.0001) //      4 ..................................................................
(PID.TID 0000.0001) //      3 ..................................................................
(PID.TID 0000.0001) //      2 ..................................................................
(PID.TID 0000.0001) //      1 ..................................................................
(PID.TID 0000.0001) //      0 ..................................................................
(PID.TID 0000.0001) //     -1 ..................................................................
(PID.TID 0000.0001) //     -2 ..................................................................
(PID.TID 0000.0001) // =======================================================
(PID.TID 0000.0001) // END OF FIELD                                          =
(PID.TID 0000.0001) // =======================================================
(PID.TID 0000.0001) 
(PID.TID 0000.0001) // =======================================================
(PID.TID 0000.0001) // Field hFacC at iteration          1
(PID.TID 0000.0001) // CMIN =          1.000000000000000E+00
(PID.TID 0000.0001) // CMAX =          1.000000000000000E+00
(PID.TID 0000.0001) // CINT =          0.000000000000000E+00
(PID.TID 0000.0001) // SYMBOLS (CMIN->CMAX): -abcdefghijklmnopqrstuvwxyz+
(PID.TID 0000.0001) //                  0.0: .
(PID.TID 0000.0001) // RANGE I (Lo:Hi:Step):(  -2:  63:   1)
(PID.TID 0000.0001) // RANGE J (Lo:Hi:Step):(   4:  -2:  -1)
(PID.TID 0000.0001) // RANGE K (Lo:Hi:Step):(   1:   1:   1)
(PID.TID 0000.0001) // =======================================================
(PID.TID 0000.0001) K =   1
(PID.TID 0000.0001) //                I=7       I=17      I=27      I=37      I=47      I=57
(PID.TID 0000.0001) // |--J--|**0123456|890123456|890123456|890123456|890123456|890123456|890123
(PID.TID 0000.0001) //      4 --.-----------------------------------------------------------.---
(PID.TID 0000.0001) //      3 --.-----------------------------------------------------------.---
(PID.TID 0000.0001) //      2 --.-----------------------------------------------------------.---
(PID.TID 0000.0001) //      1 --.-----------------------------------------------------------.---
(PID.TID 0000.0001) //      0 --.-----------------------------------------------------------.---
(PID.TID 0000.0001) //     -1 --.-----------------------------------------------------------.---
(PID.TID 0000.0001) //     -2 --.-----------------------------------------------------------.---
(PID.TID 0000.0001) // =======================================================
(PID.TID 0000.0001) // END OF FIELD                                          =
(PID.TID 0000.0001) // =======================================================
(PID.TID 0000.0001) 
(PID.TID 0000.0001) // =======================================================
(PID.TID 0000.0001) // Field hFacW at iteration          1
(PID.TID 0000.0001) // CMIN =          1.000000000000000E+00
(PID.TID 0000.0001) // CMAX =          1.000000000000000E+00
(PID.TID 0000.0001) // CINT =          0.000000000000000E+00
(PID.TID 0000.0001) // SYMBOLS (CMIN->CMAX): -abcdefghijklmnopqrstuvwxyz+
(PID.TID 0000.0001) //                  0.0: .
(PID.TID 0000.0001) // RANGE I (Lo:Hi:Step):(  -2:  63:   1)
(PID.TID 0000.0001) // RANGE J (Lo:Hi:Step):(   4:  -2:  -1)
(PID.TID 0000.0001) // RANGE K (Lo:Hi:Step):(   1:   1:   1)
(PID.TID 0000.0001) // =======================================================
(PID.TID 0000.0001) K =   1
(PID.TID 0000.0001) //                I=7       I=17      I=27      I=37      I=47      I=57
(PID.TID 0000.0001) // |--J--|**0123456|890123456|890123456|890123456|890123456|890123456|890123
(PID.TID 0000.0001) //      4 --..----------------------------------------------------------..--
(PID.TID 0000.0001) //      3 --..----------------------------------------------------------..--
(PID.TID 0000.0001) //      2 --..----------------------------------------------------------..--
(PID.TID 0000.0001) //      1 --..----------------------------------------------------------..--
(PID.TID 0000.0001) //      0 --..----------------------------------------------------------..--
(PID.TID 0000.0001) //     -1 --..----------------------------------------------------------..--
(PID.TID 0000.0001) //     -2 --..----------------------------------------------------------..--
(PID.TID 0000.0001) // =======================================================
(PID.TID 0000.0001) // END OF FIELD                                          =
(PID.TID 0000.0001) // =======================================================
(PID.TID 0000.0001) 
(PID.TID 0000.0001) // =======================================================
(PID.TID 0000.0001) // Field hFacS at iteration          1
(PID.TID 0000.0001) // CMIN =          1.000000000000000E+00
(PID.TID 0000.0001) // CMAX =          1.000000000000000E+00
(PID.TID 0000.0001) // CINT =          0.000000000000000E+00
(PID.TID 0000.0001) // SYMBOLS (CMIN->CMAX): -abcdefghijklmnopqrstuvwxyz+
(PID.TID 0000.0001) //                  0.0: .
(PID.TID 0000.0001) // RANGE I (Lo:Hi:Step):(  -2:  63:   1)
(PID.TID 0000.0001) // RANGE J (Lo:Hi:Step):(   4:  -2:  -1)
(PID.TID 0000.0001) // RANGE K (Lo:Hi:Step):(   1:   1:   1)
(PID.TID 0000.0001) // =======================================================
(PID.TID 0000.0001) K =   1
(PID.TID 0000.0001) //                I=7       I=17      I=27      I=37      I=47      I=57
(PID.TID 0000.0001) // |--J--|**0123456|890123456|890123456|890123456|890123456|890123456|890123
(PID.TID 0000.0001) //      4 --.-----------------------------------------------------------.---
(PID.TID 0000.0001) //      3 --.-----------------------------------------------------------.---
(PID.TID 0000.0001) //      2 --.-----------------------------------------------------------.---
(PID.TID 0000.0001) //      1 --.-----------------------------------------------------------.---
(PID.TID 0000.0001) //      0 --.-----------------------------------------------------------.---
(PID.TID 0000.0001) //     -1 --.-----------------------------------------------------------.---
(PID.TID 0000.0001) //     -2 --.-----------------------------------------------------------.---
(PID.TID 0000.0001) // =======================================================
(PID.TID 0000.0001) // END OF FIELD                                          =
(PID.TID 0000.0001) // =======================================================
(PID.TID 0000.0001) 
(PID.TID 0000.0001)  PACKAGES_BOOT: opening data.pkg
(PID.TID 0000.0001)  OPEN_COPY_DATA_FILE: opening file data.pkg
(PID.TID 0000.0001) // =======================================================
(PID.TID 0000.0001) // Parameter file "data.pkg"
(PID.TID 0000.0001) // =======================================================
(PID.TID 0000.0001) ># Packages
(PID.TID 0000.0001) > &PACKAGES
(PID.TID 0000.0001) > useOBCS=.TRUE.,
(PID.TID 0000.0001) > &
(PID.TID 0000.0001) 
(PID.TID 0000.0001)  PACKAGES_BOOT: finished reading data.pkg
(PID.TID 0000.0001)  OBCS_READPARMS: opening data.obcs
(PID.TID 0000.0001)  OPEN_COPY_DATA_FILE: opening file data.obcs
(PID.TID 0000.0001) // =======================================================
(PID.TID 0000.0001) // Parameter file "data.obcs"
(PID.TID 0000.0001) // =======================================================
(PID.TID 0000.0001) ># Open-boundaries
(PID.TID 0000.0001) > &OBCS_PARM01
(PID.TID 0000.0001) > OB_Ieast=-1,
(PID.TID 0000.0001) > OB_Iwest=1,
(PID.TID 0000.0001) > &
(PID.TID 0000.0001) >
(PID.TID 0000.0001) 
 OB Jn = 0 0 0 0 0 0 0 0 0 0 0 0 0 0 0 0 0 0 0 0 0 0 0 0 0 0 0 0 0 0 0 0 0 0 0 0
 0 0 0 0 0 0 0 0 0 0 0 0 0 0 0 0 0 0 0 0 0 0 0 0
 OB Js = 0 0 0 0 0 0 0 0 0 0 0 0 0 0 0 0 0 0 0 0 0 0 0 0 0 0 0 0 0 0 0 0 0 0 0 0
 0 0 0 0 0 0 0 0 0 0 0 0 0 0 0 0 0 0 0 0 0 0 0 0
 OB Ie = 60
 OB Iw = 1
(PID.TID 0000.0001)  OBCS_READPARMS: finished reading data.obcs
(PID.TID 0000.0001) OBCS_CHECK: #define ALLOW_OBCS
(PID.TID 0000.0001) OBCS_CHECK: #define ALLOW_ORLANSKI
(PID.TID 0000.0001) OBCS_CHECK: OK
(PID.TID 0000.0001) 
(PID.TID 0000.0001) // ===================================
(PID.TID 0000.0001) // GAD parameters :
(PID.TID 0000.0001) // ===================================
(PID.TID 0000.0001) tempAdvScheme =   /* Temp. advection scheme selector */
(PID.TID 0000.0001)                       2
(PID.TID 0000.0001)     ;
(PID.TID 0000.0001) tempMultiDimAdvec =   /* use Muti-Dim Advec method for Temp */
(PID.TID 0000.0001)                   F
(PID.TID 0000.0001)     ;
(PID.TID 0000.0001) tempAdamsBashforth =   /* use Adams-Bashforth time-stepping for Temp */
(PID.TID 0000.0001)                   T
(PID.TID 0000.0001)     ;
(PID.TID 0000.0001) saltAdvScheme =   /* Salt. advection scheme selector */
(PID.TID 0000.0001)                       2
(PID.TID 0000.0001)     ;
(PID.TID 0000.0001) saltMultiDimAdvec =   /* use Muti-Dim Advec method for Salt */
(PID.TID 0000.0001)                   F
(PID.TID 0000.0001)     ;
(PID.TID 0000.0001) saltAdamsBashforth =   /* use Adams-Bashforth time-stepping for Salt */
(PID.TID 0000.0001)                   T
(PID.TID 0000.0001)     ;
(PID.TID 0000.0001) // ===================================
(PID.TID 0000.0001) %MON fCori_max                    =   0.0000000000000E+00
(PID.TID 0000.0001) %MON fCori_min                    =   0.0000000000000E+00
(PID.TID 0000.0001) %MON fCori_mean                   =   0.0000000000000E+00
(PID.TID 0000.0001) %MON fCori_sd                     =   0.0000000000000E+00
(PID.TID 0000.0001) %MON fCoriG_max                   =   0.0000000000000E+00
(PID.TID 0000.0001) %MON fCoriG_min                   =   0.0000000000000E+00
(PID.TID 0000.0001) %MON fCoriG_mean                  =   0.0000000000000E+00
(PID.TID 0000.0001) %MON fCoriG_sd                    =   0.0000000000000E+00
(PID.TID 0000.0001) %MON fCoriCos_max                 =   0.0000000000000E+00
(PID.TID 0000.0001) %MON fCoriCos_min                 =   0.0000000000000E+00
(PID.TID 0000.0001) %MON fCoriCos_mean                =   0.0000000000000E+00
(PID.TID 0000.0001) %MON fCoriCos_sd                  =   0.0000000000000E+00
(PID.TID 0000.0001) // CG2D normalisation factor =          0.8721311475409838269781670E-03
(PID.TID 0000.0001) 
(PID.TID 0000.0001) // CG3D normalisation factor =          0.9172932330827066738218253E-05
(PID.TID 0000.0001) 
(PID.TID 0000.0001) CONFIG_CHECK: OK
(PID.TID 0000.0001) // =======================================================
(PID.TID 0000.0001) // Model configuration
(PID.TID 0000.0001) // =======================================================
(PID.TID 0000.0001) //
(PID.TID 0000.0001) // "Physical" paramters ( PARM01 in namelist )
(PID.TID 0000.0001) //
(PID.TID 0000.0001) buoyancyRelation = OCEANIC
(PID.TID 0000.0001) tRef =   /* Reference temperature profile ( oC or oK ) */
(PID.TID 0000.0001)                 4.842000000000000E-02,      /* K =  1 */
(PID.TID 0000.0001)                 4.332310000000000E-02,      /* K =  2 */
(PID.TID 0000.0001)                 3.822630000000000E-02,      /* K =  3 */
(PID.TID 0000.0001)                 3.312950000000000E-02,      /* K =  4 */
(PID.TID 0000.0001)                 2.803260000000000E-02,      /* K =  5 */
(PID.TID 0000.0001)                 2.293580000000000E-02,      /* K =  6 */
(PID.TID 0000.0001)                 1.783890000000000E-02,      /* K =  7 */
(PID.TID 0000.0001)                 1.274210000000000E-02,      /* K =  8 */
(PID.TID 0000.0001)                 7.645260000000000E-03,      /* K =  9 */
(PID.TID 0000.0001)                 2.548420000000000E-03,      /* K = 10 */
(PID.TID 0000.0001)                -2.548420000000000E-03,      /* K = 11 */
(PID.TID 0000.0001)                -7.645260000000000E-03,      /* K = 12 */
(PID.TID 0000.0001)                -1.274210000000000E-02,      /* K = 13 */
(PID.TID 0000.0001)                -1.783890000000000E-02,      /* K = 14 */
(PID.TID 0000.0001)                -2.293580000000000E-02,      /* K = 15 */
(PID.TID 0000.0001)                -2.803260000000000E-02,      /* K = 16 */
(PID.TID 0000.0001)                -3.312950000000000E-02,      /* K = 17 */
(PID.TID 0000.0001)                -3.822630000000000E-02,      /* K = 18 */
(PID.TID 0000.0001)                -4.332310000000000E-02,      /* K = 19 */
(PID.TID 0000.0001)                -4.842000000000000E-02       /* K = 20 */
(PID.TID 0000.0001)     ;
(PID.TID 0000.0001) sRef =   /* Reference salinity profile ( ppt ) */
(PID.TID 0000.0001)    20 @  3.500000000000000E+01              /* K =  1: 20 */
(PID.TID 0000.0001)     ;
(PID.TID 0000.0001) viscAh =   /* Lateral eddy viscosity ( m^2/s ) */
(PID.TID 0000.0001)                 1.000000000000000E-02
(PID.TID 0000.0001)     ;
(PID.TID 0000.0001) viscAh =   /* Lateral biharmonic viscosity ( m^4/s ) */
(PID.TID 0000.0001)                 0.000000000000000E+00
(PID.TID 0000.0001)     ;
(PID.TID 0000.0001) no_slip_sides =  /* Viscous BCs: No-slip sides */
(PID.TID 0000.0001)                   F
(PID.TID 0000.0001)     ;
(PID.TID 0000.0001) viscAz =   /* Vertical eddy viscosity ( m^2/s ) */
(PID.TID 0000.0001)                 1.000000000000000E-03
(PID.TID 0000.0001)     ;
(PID.TID 0000.0001) viscAr =   /* Vertical eddy viscosity ( units of r^2/s ) */
(PID.TID 0000.0001)                 1.000000000000000E-03
(PID.TID 0000.0001)     ;
(PID.TID 0000.0001) diffKhT =   /* Laplacian diffusion of heat laterally ( m^2/s ) */
(PID.TID 0000.0001)                 1.000000000000000E-02
(PID.TID 0000.0001)     ;
(PID.TID 0000.0001) diffK4T =   /* Bihaarmonic diffusion of heat laterally ( m^4/s ) */
(PID.TID 0000.0001)                 0.000000000000000E+00
(PID.TID 0000.0001)     ;
(PID.TID 0000.0001) diffKzT =   /* Laplacian diffusion of heat vertically ( m^2/s ) */
(PID.TID 0000.0001)                 1.000000000000000E-03
(PID.TID 0000.0001)     ;
(PID.TID 0000.0001) diffKrT =   /* Laplacian diffusion of heat vertically ( m^2/s ) */
(PID.TID 0000.0001)                 1.000000000000000E-03
(PID.TID 0000.0001)     ;
(PID.TID 0000.0001) diffKhS =   /* Laplacian diffusion of salt laterally ( m^2/s ) */
(PID.TID 0000.0001)                 1.000000000000000E+03
(PID.TID 0000.0001)     ;
(PID.TID 0000.0001) diffK4S =   /* Bihaarmonic diffusion of salt laterally ( m^4/s ) */
(PID.TID 0000.0001)                 0.000000000000000E+00
(PID.TID 0000.0001)     ;
(PID.TID 0000.0001) diffKzS =   /* Laplacian diffusion of salt vertically ( m^2/s ) */
(PID.TID 0000.0001)                 1.000000000000000E-05
(PID.TID 0000.0001)     ;
(PID.TID 0000.0001) diffKrS =   /* Laplacian diffusion of salt vertically ( m^2/s ) */
(PID.TID 0000.0001)                 1.000000000000000E-05
(PID.TID 0000.0001)     ;
(PID.TID 0000.0001)  Equation of State : eosType = LINEAR
(PID.TID 0000.0001) tAlpha =   /* Linear EOS thermal expansion coefficient ( 1/degree ) */
(PID.TID 0000.0001)                 2.000000000000000E-04
(PID.TID 0000.0001)     ;
(PID.TID 0000.0001) sBeta =   /* Linear EOS haline contraction coefficient ( 1/ppt ) */
(PID.TID 0000.0001)                 0.000000000000000E+00
(PID.TID 0000.0001)     ;
(PID.TID 0000.0001) rhonil =   /* Reference density ( kg/m^3 ) */
(PID.TID 0000.0001)                 9.998000000000000E+02
(PID.TID 0000.0001)     ;
(PID.TID 0000.0001) rhoConst =   /* Reference density ( kg/m^3 ) */
(PID.TID 0000.0001)                 9.998000000000000E+02
(PID.TID 0000.0001)     ;
(PID.TID 0000.0001) rhoConstFresh =   /* Reference density ( kg/m^3 ) */
(PID.TID 0000.0001)                 9.998000000000000E+02
(PID.TID 0000.0001)     ;
(PID.TID 0000.0001) gravity =   /* Gravitational acceleration ( m/s^2 ) */
(PID.TID 0000.0001)                 9.810000000000000E+00
(PID.TID 0000.0001)     ;
(PID.TID 0000.0001) gBaro =   /* Barotropic gravity ( m/s^2 ) */
(PID.TID 0000.0001)                 9.810000000000000E+00
(PID.TID 0000.0001)     ;
(PID.TID 0000.0001) rotationPeriod =   /* Rotation Period ( s ) */
(PID.TID 0000.0001)                 8.640000000000000E+04
(PID.TID 0000.0001)     ;
(PID.TID 0000.0001) omega =   /* Angular velocity ( rad/s ) */
(PID.TID 0000.0001)                 7.272205216643040E-05
(PID.TID 0000.0001)     ;
(PID.TID 0000.0001) f0 =   /* Reference coriolis parameter ( 1/s ) */
(PID.TID 0000.0001)                 0.000000000000000E+00
(PID.TID 0000.0001)     ;
(PID.TID 0000.0001) beta =   /* Beta ( 1/(m.s) ) */
(PID.TID 0000.0001)                 0.000000000000000E+00
(PID.TID 0000.0001)     ;
(PID.TID 0000.0001) freeSurfFac =   /* Implicit free surface factor */
(PID.TID 0000.0001)                 1.000000000000000E+00
(PID.TID 0000.0001)     ;
(PID.TID 0000.0001) implicitFreeSurface =   /* Implicit free surface on/off flag */
(PID.TID 0000.0001)                   T
(PID.TID 0000.0001)     ;
(PID.TID 0000.0001) rigidLid =   /* Rigid lid on/off flag */
(PID.TID 0000.0001)                   F
(PID.TID 0000.0001)     ;
(PID.TID 0000.0001) implicSurfPress =   /* Surface Pressure implicit factor (0-1)*/
(PID.TID 0000.0001)                 5.000000000000000E-01
(PID.TID 0000.0001)     ;
(PID.TID 0000.0001) implicDiv2Dflow =   /* Barot. Flow Div. implicit factor (0-1)*/
(PID.TID 0000.0001)                 5.000000000000000E-01
(PID.TID 0000.0001)     ;
(PID.TID 0000.0001) exactConserv =   /* Exact Volume Conservation on/off flag*/
(PID.TID 0000.0001)                   T
(PID.TID 0000.0001)     ;
(PID.TID 0000.0001) uniformLin_PhiSurf =   /* use uniform Bo_surf on/off flag*/
(PID.TID 0000.0001)                   T
(PID.TID 0000.0001)     ;
(PID.TID 0000.0001) nonlinFreeSurf =   /* Non-linear Free Surf. options (-1,0,1,2,3)*/
(PID.TID 0000.0001)                       3
(PID.TID 0000.0001)     ;
(PID.TID 0000.0001)      -1,0= Off ; 1,2,3= On, 2=+rescale gU,gV, 3=+update cg2d solv.
(PID.TID 0000.0001) hFacInf =   /* lower threshold for hFac (nonlinFreeSurf only)*/
(PID.TID 0000.0001)                 2.000000000000000E-01
(PID.TID 0000.0001)     ;
(PID.TID 0000.0001) hFacSup =   /* upper threshold for hFac (nonlinFreeSurf only)*/
(PID.TID 0000.0001)                 1.800000000000000E+00
(PID.TID 0000.0001)     ;
(PID.TID 0000.0001) select_rStar =   /* r* Coordinate options (not yet implemented)*/
(PID.TID 0000.0001)                       0
(PID.TID 0000.0001)     ;
(PID.TID 0000.0001) useRealFreshWaterFlux =   /* Real Fresh Water Flux on/off flag*/
(PID.TID 0000.0001)                   F
(PID.TID 0000.0001)     ;
(PID.TID 0000.0001) convertFW2Salt = /* convert F.W. Flux to Salt Flux (-1=use local S)(ppt)*/
(PID.TID 0000.0001)                 3.500000000000000E+01
(PID.TID 0000.0001)     ;
(PID.TID 0000.0001) multiDimAdvection =   /* enable/disable Multi-Dim Advection */
(PID.TID 0000.0001)                   T
(PID.TID 0000.0001)     ;
(PID.TID 0000.0001) staggerTimeStep =   /* Stagger time stepping on/off flag */
(PID.TID 0000.0001)                   F
(PID.TID 0000.0001)     ;
(PID.TID 0000.0001) momStepping =  /* Momentum equation on/off flag */
(PID.TID 0000.0001)                   T
(PID.TID 0000.0001)     ;
(PID.TID 0000.0001) momAdvection =  /* Momentum advection on/off flag */
(PID.TID 0000.0001)                   T
(PID.TID 0000.0001)     ;
(PID.TID 0000.0001) momViscosity =  /* Momentum viscosity on/off flag */
(PID.TID 0000.0001)                   T
(PID.TID 0000.0001)     ;
(PID.TID 0000.0001) useCoriolis =  /* Coriolis on/off flag */
(PID.TID 0000.0001)                   T
(PID.TID 0000.0001)     ;
(PID.TID 0000.0001) momForcing =  /* Momentum forcing on/off flag */
(PID.TID 0000.0001)                   T
(PID.TID 0000.0001)     ;
(PID.TID 0000.0001) momPressureForcing =  /* Momentum pressure term on/off flag */
(PID.TID 0000.0001)                   T
(PID.TID 0000.0001)     ;
(PID.TID 0000.0001) tempStepping =  /* Temperature equation on/off flag */
(PID.TID 0000.0001)                   T
(PID.TID 0000.0001)     ;
(PID.TID 0000.0001) tempAdvection=  /* Temperature advection on/off flag */
(PID.TID 0000.0001)                   T
(PID.TID 0000.0001)     ;
(PID.TID 0000.0001) tempForcing  =  /* Temperature forcing on/off flag */
(PID.TID 0000.0001)                   T
(PID.TID 0000.0001)     ;
(PID.TID 0000.0001) saltStepping =  /* Salinity equation on/off flag */
(PID.TID 0000.0001)                   F
(PID.TID 0000.0001)     ;
(PID.TID 0000.0001) saltAdvection=  /* Salinity advection on/off flag */
(PID.TID 0000.0001)                   F
(PID.TID 0000.0001)     ;
(PID.TID 0000.0001) saltForcing  =  /* Salinity forcing on/off flag */
(PID.TID 0000.0001)                   F
(PID.TID 0000.0001)     ;
(PID.TID 0000.0001) nonHydrostatic =  /* Non-Hydrostatic on/off flag */
(PID.TID 0000.0001)                   F
(PID.TID 0000.0001)     ;
(PID.TID 0000.0001) useCDscheme =  /* CD scheme on/off flag */
(PID.TID 0000.0001)                   F
(PID.TID 0000.0001)     ;
(PID.TID 0000.0001) useJamartWetPoints= /* Coriolis WetPoints method flag */
(PID.TID 0000.0001)                   F
(PID.TID 0000.0001)     ;
(PID.TID 0000.0001) //
(PID.TID 0000.0001) // Elliptic solver(s) paramters ( PARM02 in namelist )
(PID.TID 0000.0001) //
(PID.TID 0000.0001) cg2dMaxIters =   /* Upper limit on 2d con. grad iterations  */
(PID.TID 0000.0001)                    1000
(PID.TID 0000.0001)     ;
(PID.TID 0000.0001) cg2dChkResFreq =   /* 2d con. grad convergence test frequency */
(PID.TID 0000.0001)                       1
(PID.TID 0000.0001)     ;
(PID.TID 0000.0001) cg2dTargetResidual =   /* 2d con. grad target residual  */
(PID.TID 0000.0001)                 1.000000000000000E-13
(PID.TID 0000.0001)     ;
(PID.TID 0000.0001) //
(PID.TID 0000.0001) // Time stepping paramters ( PARM03 in namelist )
(PID.TID 0000.0001) //
(PID.TID 0000.0001) nIter0 =   /* Base timestep number  */
(PID.TID 0000.0001)                       0
(PID.TID 0000.0001)     ;
(PID.TID 0000.0001) nTimeSteps =   /* Number of timesteps */
(PID.TID 0000.0001)                     100
(PID.TID 0000.0001)     ;
(PID.TID 0000.0001) deltatTmom =   /* Momentum equation timestep ( s ) */
(PID.TID 0000.0001)                 5.000000000000000E+02
(PID.TID 0000.0001)     ;
(PID.TID 0000.0001) deltaTfreesurf =   /* FreeSurface equation timestep ( s ) */
(PID.TID 0000.0001)                 5.000000000000000E+02
(PID.TID 0000.0001)     ;
(PID.TID 0000.0001) deltatTtracer =   /* Tracer equation timestep ( s ) */
(PID.TID 0000.0001)                 5.000000000000000E+02
(PID.TID 0000.0001)     ;
(PID.TID 0000.0001) deltatTClock  =   /* Model clock timestep ( s ) */
(PID.TID 0000.0001)                 5.000000000000000E+02
(PID.TID 0000.0001)     ;
(PID.TID 0000.0001) cAdjFreq =   /* Convective adjustment interval ( s ) */
(PID.TID 0000.0001)                 0.000000000000000E+00
(PID.TID 0000.0001)     ;
(PID.TID 0000.0001) forcing_In_AB =   /* put T,S Forcing in Adams-Bash. stepping */
(PID.TID 0000.0001)                   T
(PID.TID 0000.0001)     ;
(PID.TID 0000.0001) abeps =   /* Adams-Bashforth stabilizing weight */
(PID.TID 0000.0001)                 1.000000000000000E-01
(PID.TID 0000.0001)     ;
(PID.TID 0000.0001) startTime =   /* Run start time ( s ). */
(PID.TID 0000.0001)                 0.000000000000000E+00
(PID.TID 0000.0001)     ;
(PID.TID 0000.0001) endTime =   /* Integration ending time ( s ). */
(PID.TID 0000.0001)                 5.000000000000000E+04
(PID.TID 0000.0001)     ;
(PID.TID 0000.0001) pChkPtFreq =   /* Permanent restart/checkpoint file interval ( s ). */
(PID.TID 0000.0001)                 0.000000000000000E+00
(PID.TID 0000.0001)     ;
(PID.TID 0000.0001) chkPtFreq =   /* Rolling restart/checkpoint file interval ( s ). */
(PID.TID 0000.0001)                 0.000000000000000E+00
(PID.TID 0000.0001)     ;
(PID.TID 0000.0001) dumpFreq =   /* Model state write out interval ( s ). */
(PID.TID 0000.0001)                 5.000000000000000E+04
(PID.TID 0000.0001)     ;
(PID.TID 0000.0001) //
(PID.TID 0000.0001) // Gridding paramters ( PARM04 in namelist )
(PID.TID 0000.0001) //
(PID.TID 0000.0001) usingCartesianGrid =   /* Cartesian coordinates flag ( True / False ) */
(PID.TID 0000.0001)                   T
(PID.TID 0000.0001)     ;
(PID.TID 0000.0001) usingSphericalPolarGrid =   /* Spherical coordinates flag ( True / False ) */
(PID.TID 0000.0001)                   F
(PID.TID 0000.0001)     ;
(PID.TID 0000.0001) groundAtK1 =   /* Lower Boundary (ground) at the surface(k=1) ( T / F ) */
(PID.TID 0000.0001)                   F
(PID.TID 0000.0001)     ;
(PID.TID 0000.0001) Ro_SeaLevel =   /* r(1) ( units of r ) */
(PID.TID 0000.0001)                 0.000000000000000E+00
(PID.TID 0000.0001)     ;
(PID.TID 0000.0001) rkFac =   /* minus Vertical index orientation  */
(PID.TID 0000.0001)                 1.000000000000000E+00
(PID.TID 0000.0001)     ;
(PID.TID 0000.0001) horiVertRatio =   /* Ratio on units : Horiz - Vertical */
(PID.TID 0000.0001)                 1.000000000000000E+00
(PID.TID 0000.0001)     ;
(PID.TID 0000.0001) drC =   /* C spacing ( units of r ) */
(PID.TID 0000.0001)                 5.000000000000000E+00,      /* K =  1 */
(PID.TID 0000.0001)    19 @  1.000000000000000E+01              /* K =  2: 20 */
(PID.TID 0000.0001)     ;
(PID.TID 0000.0001) drF =   /* W spacing ( units of r ) */
(PID.TID 0000.0001)    20 @  1.000000000000000E+01              /* K =  1: 20 */
(PID.TID 0000.0001)     ;
(PID.TID 0000.0001) delX =   /* U spacing ( m - cartesian, degrees - spherical ) */
(PID.TID 0000.0001)    60 @  2.180327868852459E+02              /* I =  1: 60 */
(PID.TID 0000.0001)     ;
(PID.TID 0000.0001) delY =   /* V spacing ( m - cartesian, degrees - spherical ) */
(PID.TID 0000.0001)                 5.000000000000000E+03       /* J =  1 */
(PID.TID 0000.0001)     ;
(PID.TID 0000.0001) phiMin =    /* South edge (ignored - cartesian, degrees - spherical ) */
(PID.TID 0000.0001)                 0.000000000000000E+00
(PID.TID 0000.0001)     ;
(PID.TID 0000.0001) thetaMin =    /* West edge ( ignored - cartesian, degrees - spherical ) */
(PID.TID 0000.0001)                 0.000000000000000E+00
(PID.TID 0000.0001)     ;
(PID.TID 0000.0001) rSphere =    /* Radius ( ignored - cartesian, m - spherical ) */
(PID.TID 0000.0001)                 6.370000000000000E+06
(PID.TID 0000.0001)     ;
(PID.TID 0000.0001) xcoord =   /* P-point X coord ( m - cartesian, degrees - spherical ) */
(PID.TID 0000.0001)                 1.090163934426230E+02,      /* I =  1 */
(PID.TID 0000.0001)                 3.270491803278690E+02,      /* I =  2 */
(PID.TID 0000.0001)                 5.450819672131148E+02,      /* I =  3 */
(PID.TID 0000.0001)                 7.631147540983607E+02,      /* I =  4 */
(PID.TID 0000.0001)                 9.811475409836066E+02,      /* I =  5 */
(PID.TID 0000.0001)                 1.199180327868853E+03,      /* I =  6 */
(PID.TID 0000.0001)                 1.417213114754099E+03,      /* I =  7 */
(PID.TID 0000.0001)                 1.635245901639345E+03,      /* I =  8 */
(PID.TID 0000.0001)                 1.853278688524591E+03,      /* I =  9 */
(PID.TID 0000.0001)                 2.071311475409836E+03,      /* I = 10 */
(PID.TID 0000.0001)                 2.289344262295082E+03,      /* I = 11 */
(PID.TID 0000.0001)                 2.507377049180328E+03,      /* I = 12 */
(PID.TID 0000.0001)                 2.725409836065574E+03,      /* I = 13 */
(PID.TID 0000.0001)                 2.943442622950820E+03,      /* I = 14 */
(PID.TID 0000.0001)                 3.161475409836066E+03,      /* I = 15 */
(PID.TID 0000.0001)                 3.379508196721312E+03,      /* I = 16 */
(PID.TID 0000.0001)                 3.597540983606558E+03,      /* I = 17 */
(PID.TID 0000.0001)                 3.815573770491804E+03,      /* I = 18 */
(PID.TID 0000.0001)                 4.033606557377050E+03,      /* I = 19 */
(PID.TID 0000.0001)                 4.251639344262296E+03,      /* I = 20 */
(PID.TID 0000.0001)                 4.469672131147541E+03,      /* I = 21 */
(PID.TID 0000.0001)                 4.687704918032787E+03,      /* I = 22 */
(PID.TID 0000.0001)                 4.905737704918032E+03,      /* I = 23 */
(PID.TID 0000.0001)                 5.123770491803278E+03,      /* I = 24 */
(PID.TID 0000.0001)                 5.341803278688523E+03,      /* I = 25 */
(PID.TID 0000.0001)                 5.559836065573769E+03,      /* I = 26 */
(PID.TID 0000.0001)                 5.777868852459014E+03,      /* I = 27 */
(PID.TID 0000.0001)                 5.995901639344260E+03,      /* I = 28 */
(PID.TID 0000.0001)                 6.213934426229505E+03,      /* I = 29 */
(PID.TID 0000.0001)                 6.431967213114751E+03,      /* I = 30 */
(PID.TID 0000.0001)                 6.649999999999996E+03,      /* I = 31 */
(PID.TID 0000.0001)                 6.868032786885242E+03,      /* I = 32 */
(PID.TID 0000.0001)                 7.086065573770487E+03,      /* I = 33 */
(PID.TID 0000.0001)                 7.304098360655733E+03,      /* I = 34 */
(PID.TID 0000.0001)                 7.522131147540978E+03,      /* I = 35 */
(PID.TID 0000.0001)                 7.740163934426224E+03,      /* I = 36 */
(PID.TID 0000.0001)                 7.958196721311469E+03,      /* I = 37 */
(PID.TID 0000.0001)                 8.176229508196715E+03,      /* I = 38 */
(PID.TID 0000.0001)                 8.394262295081960E+03,      /* I = 39 */
(PID.TID 0000.0001)                 8.612295081967208E+03,      /* I = 40 */
(PID.TID 0000.0001)                 8.830327868852452E+03,      /* I = 41 */
(PID.TID 0000.0001)                 9.048360655737699E+03,      /* I = 42 */
(PID.TID 0000.0001)                 9.266393442622943E+03,      /* I = 43 */
(PID.TID 0000.0001)                 9.484426229508190E+03,      /* I = 44 */
(PID.TID 0000.0001)                 9.702459016393434E+03,      /* I = 45 */
(PID.TID 0000.0001)                 9.920491803278681E+03,      /* I = 46 */
(PID.TID 0000.0001)                 1.013852459016392E+04,      /* I = 47 */
(PID.TID 0000.0001)                 1.035655737704917E+04,      /* I = 48 */
(PID.TID 0000.0001)                 1.057459016393442E+04,      /* I = 49 */
(PID.TID 0000.0001)                 1.079262295081966E+04,      /* I = 50 */
(PID.TID 0000.0001)                 1.101065573770491E+04,      /* I = 51 */
(PID.TID 0000.0001)                 1.122868852459015E+04,      /* I = 52 */
(PID.TID 0000.0001)                 1.144672131147540E+04,      /* I = 53 */
(PID.TID 0000.0001)                 1.166475409836065E+04,      /* I = 54 */
(PID.TID 0000.0001)                 1.188278688524589E+04,      /* I = 55 */
(PID.TID 0000.0001)                 1.210081967213114E+04,      /* I = 56 */
(PID.TID 0000.0001)                 1.231885245901638E+04,      /* I = 57 */
(PID.TID 0000.0001)                 1.253688524590163E+04,      /* I = 58 */
(PID.TID 0000.0001)                 1.275491803278687E+04,      /* I = 59 */
(PID.TID 0000.0001)                 1.297295081967212E+04       /* I = 60 */
(PID.TID 0000.0001)     ;
(PID.TID 0000.0001) ycoord =   /* P-point Y coord ( m - cartesian, degrees - spherical ) */
(PID.TID 0000.0001)                 2.500000000000000E+03       /* J =  1 */
(PID.TID 0000.0001)     ;
(PID.TID 0000.0001) rcoord =   /* P-point R coordinate (  units of r ) */
(PID.TID 0000.0001)                -5.000000000000000E+00,      /* K =  1 */
(PID.TID 0000.0001)                -1.500000000000000E+01,      /* K =  2 */
(PID.TID 0000.0001)                -2.500000000000000E+01,      /* K =  3 */
(PID.TID 0000.0001)                -3.500000000000000E+01,      /* K =  4 */
(PID.TID 0000.0001)                -4.500000000000000E+01,      /* K =  5 */
(PID.TID 0000.0001)                -5.500000000000000E+01,      /* K =  6 */
(PID.TID 0000.0001)                -6.500000000000000E+01,      /* K =  7 */
(PID.TID 0000.0001)                -7.500000000000000E+01,      /* K =  8 */
(PID.TID 0000.0001)                -8.500000000000000E+01,      /* K =  9 */
(PID.TID 0000.0001)                -9.500000000000000E+01,      /* K = 10 */
(PID.TID 0000.0001)                -1.050000000000000E+02,      /* K = 11 */
(PID.TID 0000.0001)                -1.150000000000000E+02,      /* K = 12 */
(PID.TID 0000.0001)                -1.250000000000000E+02,      /* K = 13 */
(PID.TID 0000.0001)                -1.350000000000000E+02,      /* K = 14 */
(PID.TID 0000.0001)                -1.450000000000000E+02,      /* K = 15 */
(PID.TID 0000.0001)                -1.550000000000000E+02,      /* K = 16 */
(PID.TID 0000.0001)                -1.650000000000000E+02,      /* K = 17 */
(PID.TID 0000.0001)                -1.750000000000000E+02,      /* K = 18 */
(PID.TID 0000.0001)                -1.850000000000000E+02,      /* K = 19 */
(PID.TID 0000.0001)                -1.950000000000000E+02       /* K = 20 */
(PID.TID 0000.0001)     ;
(PID.TID 0000.0001) rF =   /* W-Interf. R coordinate (  units of r ) */
(PID.TID 0000.0001)                 0.000000000000000E+00,      /* K =  1 */
(PID.TID 0000.0001)                -1.000000000000000E+01,      /* K =  2 */
(PID.TID 0000.0001)                -2.000000000000000E+01,      /* K =  3 */
(PID.TID 0000.0001)                -3.000000000000000E+01,      /* K =  4 */
(PID.TID 0000.0001)                -4.000000000000000E+01,      /* K =  5 */
(PID.TID 0000.0001)                -5.000000000000000E+01,      /* K =  6 */
(PID.TID 0000.0001)                -6.000000000000000E+01,      /* K =  7 */
(PID.TID 0000.0001)                -7.000000000000000E+01,      /* K =  8 */
(PID.TID 0000.0001)                -8.000000000000000E+01,      /* K =  9 */
(PID.TID 0000.0001)                -9.000000000000000E+01,      /* K = 10 */
(PID.TID 0000.0001)                -1.000000000000000E+02,      /* K = 11 */
(PID.TID 0000.0001)                -1.100000000000000E+02,      /* K = 12 */
(PID.TID 0000.0001)                -1.200000000000000E+02,      /* K = 13 */
(PID.TID 0000.0001)                -1.300000000000000E+02,      /* K = 14 */
(PID.TID 0000.0001)                -1.400000000000000E+02,      /* K = 15 */
(PID.TID 0000.0001)                -1.500000000000000E+02,      /* K = 16 */
(PID.TID 0000.0001)                -1.600000000000000E+02,      /* K = 17 */
(PID.TID 0000.0001)                -1.700000000000000E+02,      /* K = 18 */
(PID.TID 0000.0001)                -1.800000000000000E+02,      /* K = 19 */
(PID.TID 0000.0001)                -1.900000000000000E+02,      /* K = 20 */
(PID.TID 0000.0001)                -2.000000000000000E+02       /* K = 21 */
(PID.TID 0000.0001)     ;
(PID.TID 0000.0001) dxF =  /* dxF(:,1,:,1) ( m - cartesian, degrees - spherical ) */
(PID.TID 0000.0001)    60 @  2.180327868852459E+02              /* I =  1: 60 */
(PID.TID 0000.0001)     ;
(PID.TID 0000.0001) dxF =  /* dxF(1,:,1,:) ( m - cartesian, degrees - spherical ) */
(PID.TID 0000.0001)                 2.180327868852459E+02       /* J =  1 */
(PID.TID 0000.0001)     ;
(PID.TID 0000.0001) dyF =  /* dyF(:,1,:,1) ( m - cartesian, degrees - spherical ) */
(PID.TID 0000.0001)    60 @  5.000000000000000E+03              /* I =  1: 60 */
(PID.TID 0000.0001)     ;
(PID.TID 0000.0001) dyF =  /* dyF(1,:,1,:) ( m - cartesian, degrees - spherical ) */
(PID.TID 0000.0001)                 5.000000000000000E+03       /* J =  1 */
(PID.TID 0000.0001)     ;
(PID.TID 0000.0001) dxG =  /* dxG(:,1,:,1) ( m - cartesian, degrees - spherical ) */
(PID.TID 0000.0001)    60 @  2.180327868852459E+02              /* I =  1: 60 */
(PID.TID 0000.0001)     ;
(PID.TID 0000.0001) dxG =  /* dxG(1,:,1,:) ( m - cartesian, degrees - spherical ) */
(PID.TID 0000.0001)                 2.180327868852459E+02       /* J =  1 */
(PID.TID 0000.0001)     ;
(PID.TID 0000.0001) dyG =  /* dyG(:,1,:,1) ( m - cartesian, degrees - spherical ) */
(PID.TID 0000.0001)    60 @  5.000000000000000E+03              /* I =  1: 60 */
(PID.TID 0000.0001)     ;
(PID.TID 0000.0001) dyG =  /* dyG(1,:,1,:) ( m - cartesian, degrees - spherical ) */
(PID.TID 0000.0001)                 5.000000000000000E+03       /* J =  1 */
(PID.TID 0000.0001)     ;
(PID.TID 0000.0001) dxC =  /* dxC(:,1,:,1) ( m - cartesian, degrees - spherical ) */
(PID.TID 0000.0001)    60 @  2.180327868852459E+02              /* I =  1: 60 */
(PID.TID 0000.0001)     ;
(PID.TID 0000.0001) dxC =  /* dxC(1,:,1,:) ( m - cartesian, degrees - spherical ) */
(PID.TID 0000.0001)                 2.180327868852459E+02       /* J =  1 */
(PID.TID 0000.0001)     ;
(PID.TID 0000.0001) dyC =  /* dyC(:,1,:,1) ( m - cartesian, degrees - spherical ) */
(PID.TID 0000.0001)    60 @  5.000000000000000E+03              /* I =  1: 60 */
(PID.TID 0000.0001)     ;
(PID.TID 0000.0001) dyC =  /* dyC(1,:,1,:) ( m - cartesian, degrees - spherical ) */
(PID.TID 0000.0001)                 5.000000000000000E+03       /* J =  1 */
(PID.TID 0000.0001)     ;
(PID.TID 0000.0001) dxV =  /* dxV(:,1,:,1) ( m - cartesian, degrees - spherical ) */
(PID.TID 0000.0001)    60 @  2.180327868852459E+02              /* I =  1: 60 */
(PID.TID 0000.0001)     ;
(PID.TID 0000.0001) dxV =  /* dxV(1,:,1,:) ( m - cartesian, degrees - spherical ) */
(PID.TID 0000.0001)                 2.180327868852459E+02       /* J =  1 */
(PID.TID 0000.0001)     ;
(PID.TID 0000.0001) dyU =  /* dyU(:,1,:,1) ( m - cartesian, degrees - spherical ) */
(PID.TID 0000.0001)    60 @  5.000000000000000E+03              /* I =  1: 60 */
(PID.TID 0000.0001)     ;
(PID.TID 0000.0001) dyU =  /* dyU(1,:,1,:) ( m - cartesian, degrees - spherical ) */
(PID.TID 0000.0001)                 5.000000000000000E+03       /* J =  1 */
(PID.TID 0000.0001)     ;
(PID.TID 0000.0001) rA =  /* rA(:,1,:,1) ( m - cartesian, degrees - spherical ) */
(PID.TID 0000.0001)    60 @  1.090163934426229E+06              /* I =  1: 60 */
(PID.TID 0000.0001)     ;
(PID.TID 0000.0001) rA =  /* rA(1,:,1,:) ( m - cartesian, degrees - spherical ) */
(PID.TID 0000.0001)                 1.090163934426229E+06       /* J =  1 */
(PID.TID 0000.0001)     ;
(PID.TID 0000.0001) rAw =  /* rAw(:,1,:,1) ( m - cartesian, degrees - spherical ) */
(PID.TID 0000.0001)    60 @  1.090163934426229E+06              /* I =  1: 60 */
(PID.TID 0000.0001)     ;
(PID.TID 0000.0001) rAw =  /* rAw(1,:,1,:) ( m - cartesian, degrees - spherical ) */
(PID.TID 0000.0001)                 1.090163934426229E+06       /* J =  1 */
(PID.TID 0000.0001)     ;
(PID.TID 0000.0001) rAs =  /* rAs(:,1,:,1) ( m - cartesian, degrees - spherical ) */
(PID.TID 0000.0001)    60 @  1.090163934426229E+06              /* I =  1: 60 */
(PID.TID 0000.0001)     ;
(PID.TID 0000.0001) rAs =  /* rAs(1,:,1,:) ( m - cartesian, degrees - spherical ) */
(PID.TID 0000.0001)                 1.090163934426229E+06       /* J =  1 */
(PID.TID 0000.0001)     ;
(PID.TID 0000.0001) 
(PID.TID 0000.0001)  MDSREADFIELD: opening global file: T.init
(PID.TID 0000.0001) // =======================================================
(PID.TID 0000.0001) // Field Initial Temperature at iteration          1
(PID.TID 0000.0001) // CMIN =          4.841997961264016E-02
(PID.TID 0000.0001) // CMAX =          4.841997961264016E-02
(PID.TID 0000.0001) // CINT =          0.000000000000000E+00
(PID.TID 0000.0001) // SYMBOLS (CMIN->CMAX): -abcdefghijklmnopqrstuvwxyz+
(PID.TID 0000.0001) //                  0.0: .
(PID.TID 0000.0001) // RANGE I (Lo:Hi:Step):(   1:  60:   1)
(PID.TID 0000.0001) // RANGE J (Lo:Hi:Step):(   1:   1:  -1)
(PID.TID 0000.0001) // RANGE K (Lo:Hi:Step):(   1:   1:   1)
(PID.TID 0000.0001) // =======================================================
(PID.TID 0000.0001) K =   1
(PID.TID 0000.0001)                I=10      I=20      I=30      I=40      I=50      I=60
(PID.TID 0000.0001) |--J--|123456789|123456789|123456789|123456789|123456789|123456789|
(PID.TID 0000.0001)      1 -----------------------------------------------------------.
(PID.TID 0000.0001) // =======================================================
(PID.TID 0000.0001) // END OF FIELD                                          =
(PID.TID 0000.0001) // =======================================================
(PID.TID 0000.0001) 
(PID.TID 0000.0001) // =======================================================
(PID.TID 0000.0001) // Field Initial Salinity at iteration          1
(PID.TID 0000.0001) // CMIN =          3.500000000000000E+01
(PID.TID 0000.0001) // CMAX =          3.500000000000000E+01
(PID.TID 0000.0001) // CINT =          0.000000000000000E+00
(PID.TID 0000.0001) // SYMBOLS (CMIN->CMAX): -abcdefghijklmnopqrstuvwxyz+
(PID.TID 0000.0001) //                  0.0: .
(PID.TID 0000.0001) // RANGE I (Lo:Hi:Step):(   1:  60:   1)
(PID.TID 0000.0001) // RANGE J (Lo:Hi:Step):(   1:   1:  -1)
(PID.TID 0000.0001) // RANGE K (Lo:Hi:Step):(   1:   1:   1)
(PID.TID 0000.0001) // =======================================================
(PID.TID 0000.0001) K =   1
(PID.TID 0000.0001)                I=10      I=20      I=30      I=40      I=50      I=60
(PID.TID 0000.0001) |--J--|123456789|123456789|123456789|123456789|123456789|123456789|
(PID.TID 0000.0001)      1 -----------------------------------------------------------.
(PID.TID 0000.0001) // =======================================================
(PID.TID 0000.0001) // END OF FIELD                                          =
(PID.TID 0000.0001) // =======================================================
(PID.TID 0000.0001) 
(PID.TID 0000.0001) Start initial hydrostatic pressure computation
(PID.TID 0000.0001) Pressure is predetermined for buoyancyRelation OCEANIC
(PID.TID 0000.0001) 
(PID.TID 0000.0001) // =======================================================
(PID.TID 0000.0001) // Model current state
(PID.TID 0000.0001) // =======================================================
(PID.TID 0000.0001) 
(PID.TID 0000.0001) // =======================================================
(PID.TID 0000.0001) // Begin MONITOR dynamic field statistics
(PID.TID 0000.0001) // =======================================================
(PID.TID 0000.0001) %MON time_tsnumber                =                     0
(PID.TID 0000.0001) %MON time_secondsf                =   0.0000000000000E+00
(PID.TID 0000.0001) %MON dynstat_eta_max              =   0.0000000000000E+00
(PID.TID 0000.0001) %MON dynstat_eta_min              =   0.0000000000000E+00
(PID.TID 0000.0001) %MON dynstat_eta_mean             =   0.0000000000000E+00
(PID.TID 0000.0001) %MON dynstat_eta_sd               =   0.0000000000000E+00
(PID.TID 0000.0001) %MON dynstat_eta_del2             =   0.0000000000000E+00
(PID.TID 0000.0001) %MON dynstat_uvel_max             =   0.0000000000000E+00
(PID.TID 0000.0001) %MON dynstat_uvel_min             =   0.0000000000000E+00
(PID.TID 0000.0001) %MON dynstat_uvel_mean            =   0.0000000000000E+00
(PID.TID 0000.0001) %MON dynstat_uvel_sd              =   0.0000000000000E+00
(PID.TID 0000.0001) %MON dynstat_uvel_del2            =   0.0000000000000E+00
(PID.TID 0000.0001) %MON dynstat_vvel_max             =   0.0000000000000E+00
(PID.TID 0000.0001) %MON dynstat_vvel_min             =   0.0000000000000E+00
(PID.TID 0000.0001) %MON dynstat_vvel_mean            =   0.0000000000000E+00
(PID.TID 0000.0001) %MON dynstat_vvel_sd              =   0.0000000000000E+00
(PID.TID 0000.0001) %MON dynstat_vvel_del2            =   0.0000000000000E+00
(PID.TID 0000.0001) %MON dynstat_wvel_max             =   0.0000000000000E+00
(PID.TID 0000.0001) %MON dynstat_wvel_min             =   0.0000000000000E+00
(PID.TID 0000.0001) %MON dynstat_wvel_mean            =   0.0000000000000E+00
(PID.TID 0000.0001) %MON dynstat_wvel_sd              =   0.0000000000000E+00
(PID.TID 0000.0001) %MON dynstat_wvel_del2            =   0.0000000000000E+00
(PID.TID 0000.0001) %MON dynstat_theta_max            =   4.8420000000000E-02
(PID.TID 0000.0001) %MON dynstat_theta_min            =  -4.8420000000000E-02
(PID.TID 0000.0001) %MON dynstat_theta_mean           =   1.3984481732139E-02
(PID.TID 0000.0001) %MON dynstat_theta_sd             =   2.7839130810646E-02
(PID.TID 0000.0001) %MON dynstat_theta_del2           =   2.9272547939936E-10
(PID.TID 0000.0001) %MON dynstat_salt_max             =   3.5000000000000E+01
(PID.TID 0000.0001) %MON dynstat_salt_min             =   0.0000000000000E+00
(PID.TID 0000.0001) %MON dynstat_salt_mean            =   3.3847052152665E+01
(PID.TID 0000.0001) %MON dynstat_salt_sd              =   6.2469101096520E+00
(PID.TID 0000.0001) %MON dynstat_salt_del2            =   5.6726094003241E-01
(PID.TID 0000.0001) %MON advcfl_uvel_max              =   0.0000000000000E+00
(PID.TID 0000.0001) %MON advcfl_vvel_max              =   0.0000000000000E+00
(PID.TID 0000.0001) %MON advcfl_wvel_max              =   0.0000000000000E+00
(PID.TID 0000.0001) %MON advcfl_W_hf_max              =   0.0000000000000E+00
(PID.TID 0000.0001) %MON pe_b_mean                    =   0.0000000000000E+00
(PID.TID 0000.0001) %MON ke_max                       =   0.0000000000000E+00
(PID.TID 0000.0001) %MON ke_mean                      =   0.0000000000000E+00
(PID.TID 0000.0001) %MON ke_vol                       =   6.6188141628594E+09
(PID.TID 0000.0001) %MON vort_r_min                   =   0.0000000000000E+00
(PID.TID 0000.0001) %MON vort_r_max                   =   0.0000000000000E+00
(PID.TID 0000.0001) %MON vort_a_mean                  =   0.0000000000000E+00
(PID.TID 0000.0001) %MON vort_a_sd                    =   0.0000000000000E+00
(PID.TID 0000.0001) %MON vort_p_mean                  =   0.0000000000000E+00
(PID.TID 0000.0001) %MON vort_p_sd                    =   0.0000000000000E+00
(PID.TID 0000.0001) %MON surfExpan_theta_mean         =   0.0000000000000E+00
(PID.TID 0000.0001) %MON surfExpan_salt_mean          =   0.0000000000000E+00
(PID.TID 0000.0001) // =======================================================
(PID.TID 0000.0001) // End MONITOR dynamic field statistics
(PID.TID 0000.0001) // =======================================================
 cg2d: Sum(rhs),rhsMax =   1.00000000000000E+00  1.21032510061595E-20
(PID.TID 0000.0001)                    cg2d_init_res =    1.00000000000000E+00
(PID.TID 0000.0001)                       cg2d_iters =    58
(PID.TID 0000.0001)                         cg2d_res =    5.46624249388655E-17
 cg2d: Sum(rhs),rhsMax =  -3.60502524599565E-13  1.07634058188289E-06
 cg2d: Sum(rhs),rhsMax =  -1.90318528487830E-14  7.54886693748753E-05
 cg2d: Sum(rhs),rhsMax =  -1.68129517876285E-14  9.21591535078131E-05
 cg2d: Sum(rhs),rhsMax =  -1.52902711515355E-14  1.87619597702847E-04
(PID.TID 0000.0001) // =======================================================
(PID.TID 0000.0001) // Begin MONITOR dynamic field statistics
(PID.TID 0000.0001) // =======================================================
(PID.TID 0000.0001) %MON time_tsnumber                =                     5
(PID.TID 0000.0001) %MON time_secondsf                =   2.5000000000000E+03
(PID.TID 0000.0001) %MON dynstat_eta_max              =   1.8838689085179E-05
(PID.TID 0000.0001) %MON dynstat_eta_min              =  -7.0430999054550E-07
(PID.TID 0000.0001) %MON dynstat_eta_mean             =   9.2563490995103E-18
(PID.TID 0000.0001) %MON dynstat_eta_sd               =   2.4811881880883E-06
(PID.TID 0000.0001) %MON dynstat_eta_del2             =   3.2213351751794E-07
(PID.TID 0000.0001) %MON dynstat_uvel_max             =   8.0150165287875E-03
(PID.TID 0000.0001) %MON dynstat_uvel_min             =  -8.0150165287875E-03
(PID.TID 0000.0001) %MON dynstat_uvel_mean            =  -2.1302863359135E-08
(PID.TID 0000.0001) %MON dynstat_uvel_sd              =   1.0524319999168E-03
(PID.TID 0000.0001) %MON dynstat_uvel_del2            =   7.9323456744431E-05
(PID.TID 0000.0001) %MON dynstat_vvel_max             =   0.0000000000000E+00
(PID.TID 0000.0001) %MON dynstat_vvel_min             =   0.0000000000000E+00
(PID.TID 0000.0001) %MON dynstat_vvel_mean            =   0.0000000000000E+00
(PID.TID 0000.0001) %MON dynstat_vvel_sd              =   0.0000000000000E+00
(PID.TID 0000.0001) %MON dynstat_vvel_del2            =   0.0000000000000E+00
(PID.TID 0000.0001) %MON dynstat_wvel_max             =   2.3499042947512E-03
(PID.TID 0000.0001) %MON dynstat_wvel_min             =  -2.1666602986529E-03
(PID.TID 0000.0001) %MON dynstat_wvel_mean            =  -1.2539638969768E-20
(PID.TID 0000.0001) %MON dynstat_wvel_sd              =   4.1768560235115E-04
(PID.TID 0000.0001) %MON dynstat_wvel_del2            =   6.6962012505239E-05
(PID.TID 0000.0001) %MON dynstat_theta_max            =   4.8751308589830E-02
(PID.TID 0000.0001) %MON dynstat_theta_min            =  -4.8294115600338E-02
(PID.TID 0000.0001) %MON dynstat_theta_mean           =   1.4104583444709E-02
(PID.TID 0000.0001) %MON dynstat_theta_sd             =   2.7763973874816E-02
(PID.TID 0000.0001) %MON dynstat_theta_del2           =   3.2102147848860E-05
(PID.TID 0000.0001) %MON dynstat_salt_max             =   3.5000000000000E+01
(PID.TID 0000.0001) %MON dynstat_salt_min             =   0.0000000000000E+00
(PID.TID 0000.0001) %MON dynstat_salt_mean            =   3.3847052152665E+01
(PID.TID 0000.0001) %MON dynstat_salt_sd              =   6.2469101096520E+00
(PID.TID 0000.0001) %MON dynstat_salt_del2            =   5.6726094003241E-01
(PID.TID 0000.0001) %MON advcfl_uvel_max              =   1.8380301062257E-02
(PID.TID 0000.0001) %MON advcfl_vvel_max              =   0.0000000000000E+00
(PID.TID 0000.0001) %MON advcfl_wvel_max              =   1.1749521473756E-01
(PID.TID 0000.0001) %MON advcfl_W_hf_max              =   1.1749521473756E-01
(PID.TID 0000.0001) %MON pe_b_mean                    =   2.9344185278610E-13
(PID.TID 0000.0001) %MON ke_max                       =   1.6167187656620E-05
(PID.TID 0000.0001) %MON ke_mean                      =   5.3556341203711E-07
(PID.TID 0000.0001) %MON ke_vol                       =   6.6188141628594E+09
(PID.TID 0000.0001) %MON vort_r_min                   =   0.0000000000000E+00
(PID.TID 0000.0001) %MON vort_r_max                   =   0.0000000000000E+00
(PID.TID 0000.0001) %MON vort_a_mean                  =   0.0000000000000E+00
(PID.TID 0000.0001) %MON vort_a_sd                    =   0.0000000000000E+00
(PID.TID 0000.0001) %MON vort_p_mean                  =   0.0000000000000E+00
(PID.TID 0000.0001) %MON vort_p_sd                    =   0.0000000000000E+00
(PID.TID 0000.0001) %MON surfExpan_theta_mean         =   1.2266535733153E-13
(PID.TID 0000.0001) %MON surfExpan_salt_mean          =   3.5481023663371E-19
(PID.TID 0000.0001) // =======================================================
(PID.TID 0000.0001) // End MONITOR dynamic field statistics
(PID.TID 0000.0001) // =======================================================
 cg2d: Sum(rhs),rhsMax =  -1.31427690386039E-14  2.18318804274630E-04
(PID.TID 0000.0001)                    cg2d_init_res =    1.80512690609454E-01
(PID.TID 0000.0001)                       cg2d_iters =    58
(PID.TID 0000.0001)                         cg2d_res =    2.94522354719229E-19
 cg2d: Sum(rhs),rhsMax =  -9.12508763483647E-15  3.19782805323832E-04
 cg2d: Sum(rhs),rhsMax =  -2.18610640183238E-14  3.50014219839661E-04
 cg2d: Sum(rhs),rhsMax =  -1.96835800095538E-14  4.42716694821037E-04
 cg2d: Sum(rhs),rhsMax =  -1.97556035386962E-14  4.59164943922736E-04
(PID.TID 0000.0001) // =======================================================
(PID.TID 0000.0001) // Begin MONITOR dynamic field statistics
(PID.TID 0000.0001) // =======================================================
(PID.TID 0000.0001) %MON time_tsnumber                =                    10
(PID.TID 0000.0001) %MON time_secondsf                =   5.0000000000000E+03
(PID.TID 0000.0001) %MON dynstat_eta_max              =   5.6399027008179E-05
(PID.TID 0000.0001) %MON dynstat_eta_min              =  -1.5266432574969E-06
(PID.TID 0000.0001) %MON dynstat_eta_mean             =   3.7939837178141E-17
(PID.TID 0000.0001) %MON dynstat_eta_sd               =   7.5402177439182E-06
(PID.TID 0000.0001) %MON dynstat_eta_del2             =   8.7528850641569E-07
(PID.TID 0000.0001) %MON dynstat_uvel_max             =   1.5044623392047E-02
(PID.TID 0000.0001) %MON dynstat_uvel_min             =  -1.5044623392047E-02
(PID.TID 0000.0001) %MON dynstat_uvel_mean            =  -2.4951840628394E-08
(PID.TID 0000.0001) %MON dynstat_uvel_sd              =   2.0643256049420E-03
(PID.TID 0000.0001) %MON dynstat_uvel_del2            =   1.1145793345250E-04
(PID.TID 0000.0001) %MON dynstat_vvel_max             =   0.0000000000000E+00
(PID.TID 0000.0001) %MON dynstat_vvel_min             =   0.0000000000000E+00
(PID.TID 0000.0001) %MON dynstat_vvel_mean            =   0.0000000000000E+00
(PID.TID 0000.0001) %MON dynstat_vvel_sd              =   0.0000000000000E+00
(PID.TID 0000.0001) %MON dynstat_vvel_del2            =   0.0000000000000E+00
(PID.TID 0000.0001) %MON dynstat_wvel_max             =   4.4108985920249E-03
(PID.TID 0000.0001) %MON dynstat_wvel_min             =  -3.0321641043089E-03
(PID.TID 0000.0001) %MON dynstat_wvel_mean            =   1.0804430108949E-20
(PID.TID 0000.0001) %MON dynstat_wvel_sd              =   7.1721363097602E-04
(PID.TID 0000.0001) %MON dynstat_wvel_del2            =   9.5119473066052E-05
(PID.TID 0000.0001) %MON dynstat_theta_max            =   4.9041884302128E-02
(PID.TID 0000.0001) %MON dynstat_theta_min            =  -4.8171354040724E-02
(PID.TID 0000.0001) %MON dynstat_theta_mean           =   1.4274714644170E-02
(PID.TID 0000.0001) %MON dynstat_theta_sd             =   2.7676197659039E-02
(PID.TID 0000.0001) %MON dynstat_theta_del2           =   4.9483496699873E-05
(PID.TID 0000.0001) %MON dynstat_salt_max             =   3.5000000000000E+01
(PID.TID 0000.0001) %MON dynstat_salt_min             =   0.0000000000000E+00
(PID.TID 0000.0001) %MON dynstat_salt_mean            =   3.3847052152665E+01
(PID.TID 0000.0001) %MON dynstat_salt_sd              =   6.2469101096520E+00
(PID.TID 0000.0001) %MON dynstat_salt_del2            =   5.6726094003241E-01
(PID.TID 0000.0001) %MON advcfl_uvel_max              =   3.4500828079506E-02
(PID.TID 0000.0001) %MON advcfl_vvel_max              =   0.0000000000000E+00
(PID.TID 0000.0001) %MON advcfl_wvel_max              =   2.2054492960125E-01
(PID.TID 0000.0001) %MON advcfl_W_hf_max              =   2.2054492960125E-01
(PID.TID 0000.0001) %MON pe_b_mean                    =   2.7100070523104E-12
(PID.TID 0000.0001) %MON ke_max                       =   6.2418922137623E-05
(PID.TID 0000.0001) %MON ke_mean                      =   2.0605312399552E-06
(PID.TID 0000.0001) %MON ke_vol                       =   6.6188141628594E+09
(PID.TID 0000.0001) %MON vort_r_min                   =   0.0000000000000E+00
(PID.TID 0000.0001) %MON vort_r_max                   =   0.0000000000000E+00
(PID.TID 0000.0001) %MON vort_a_mean                  =   0.0000000000000E+00
(PID.TID 0000.0001) %MON vort_a_sd                    =   0.0000000000000E+00
(PID.TID 0000.0001) %MON vort_p_mean                  =   0.0000000000000E+00
(PID.TID 0000.0001) %MON vort_p_sd                    =   0.0000000000000E+00
(PID.TID 0000.0001) %MON surfExpan_theta_mean         =  -5.6700727674371E-13
(PID.TID 0000.0001) %MON surfExpan_salt_mean          =   3.0632186210584E-19
(PID.TID 0000.0001) // =======================================================
(PID.TID 0000.0001) // End MONITOR dynamic field statistics
(PID.TID 0000.0001) // =======================================================
 cg2d: Sum(rhs),rhsMax =  -1.86783411071476E-14  5.31285549578888E-04
(PID.TID 0000.0001)                    cg2d_init_res =    1.63978143876898E-01
(PID.TID 0000.0001)                       cg2d_iters =    58
(PID.TID 0000.0001)                         cg2d_res =    6.70664095282751E-19
 cg2d: Sum(rhs),rhsMax =  -2.20167478269962E-14  5.24996738326590E-04
 cg2d: Sum(rhs),rhsMax =  -2.32010997870333E-14  5.70212072499266E-04
 cg2d: Sum(rhs),rhsMax =  -2.75035036927237E-14  5.38368110865037E-04
 cg2d: Sum(rhs),rhsMax =  -2.57798102797861E-14  5.56671346390438E-04
(PID.TID 0000.0001) // =======================================================
(PID.TID 0000.0001) // Begin MONITOR dynamic field statistics
(PID.TID 0000.0001) // =======================================================
(PID.TID 0000.0001) %MON time_tsnumber                =                    15
(PID.TID 0000.0001) %MON time_secondsf                =   7.5000000000000E+03
(PID.TID 0000.0001) %MON dynstat_eta_max              =   9.4236610522514E-05
(PID.TID 0000.0001) %MON dynstat_eta_min              =  -3.2392787647379E-06
(PID.TID 0000.0001) %MON dynstat_eta_mean             =   5.4754820681177E-17
(PID.TID 0000.0001) %MON dynstat_eta_sd               =   1.3429892775131E-05
(PID.TID 0000.0001) %MON dynstat_eta_del2             =   1.2810254104476E-06
(PID.TID 0000.0001) %MON dynstat_uvel_max             =   2.0224562540773E-02
(PID.TID 0000.0001) %MON dynstat_uvel_min             =  -2.0224562540773E-02
(PID.TID 0000.0001) %MON dynstat_uvel_mean            =  -3.7273760729751E-08
(PID.TID 0000.0001) %MON dynstat_uvel_sd              =   3.0889812337668E-03
(PID.TID 0000.0001) %MON dynstat_uvel_del2            =   9.5879331902790E-05
(PID.TID 0000.0001) %MON dynstat_vvel_max             =   0.0000000000000E+00
(PID.TID 0000.0001) %MON dynstat_vvel_min             =   0.0000000000000E+00
(PID.TID 0000.0001) %MON dynstat_vvel_mean            =   0.0000000000000E+00
(PID.TID 0000.0001) %MON dynstat_vvel_sd              =   0.0000000000000E+00
(PID.TID 0000.0001) %MON dynstat_vvel_del2            =   0.0000000000000E+00
(PID.TID 0000.0001) %MON dynstat_wvel_max             =   5.9295930586453E-03
(PID.TID 0000.0001) %MON dynstat_wvel_min             =  -2.5843099540541E-03
(PID.TID 0000.0001) %MON dynstat_wvel_mean            =   1.5018862446829E-20
(PID.TID 0000.0001) %MON dynstat_wvel_sd              =   9.0928130746266E-04
(PID.TID 0000.0001) %MON dynstat_wvel_del2            =   1.0524125506192E-04
(PID.TID 0000.0001) %MON dynstat_theta_max            =   4.9256002180563E-02
(PID.TID 0000.0001) %MON dynstat_theta_min            =  -4.8051473518898E-02
(PID.TID 0000.0001) %MON dynstat_theta_mean           =   1.4472192453959E-02
(PID.TID 0000.0001) %MON dynstat_theta_sd             =   2.7584718696434E-02
(PID.TID 0000.0001) %MON dynstat_theta_del2           =   6.3960206394634E-05
(PID.TID 0000.0001) %MON dynstat_salt_max             =   3.5000000000000E+01
(PID.TID 0000.0001) %MON dynstat_salt_min             =   0.0000000000000E+00
(PID.TID 0000.0001) %MON dynstat_salt_mean            =   3.3847052152665E+01
(PID.TID 0000.0001) %MON dynstat_salt_sd              =   6.2469101096520E+00
(PID.TID 0000.0001) %MON dynstat_salt_del2            =   5.6726094003241E-01
(PID.TID 0000.0001) %MON advcfl_uvel_max              =   4.6379635901772E-02
(PID.TID 0000.0001) %MON advcfl_vvel_max              =   0.0000000000000E+00
(PID.TID 0000.0001) %MON advcfl_wvel_max              =   2.9647965293226E-01
(PID.TID 0000.0001) %MON advcfl_W_hf_max              =   2.9647965293226E-01
(PID.TID 0000.0001) %MON pe_b_mean                    =   8.5970160321752E-12
(PID.TID 0000.0001) %MON ke_max                       =   1.3729536886650E-04
(PID.TID 0000.0001) %MON ke_mean                      =   4.6137424363250E-06
(PID.TID 0000.0001) %MON ke_vol                       =   6.6188141628594E+09
(PID.TID 0000.0001) %MON vort_r_min                   =   0.0000000000000E+00
(PID.TID 0000.0001) %MON vort_r_max                   =   0.0000000000000E+00
(PID.TID 0000.0001) %MON vort_a_mean                  =   0.0000000000000E+00
(PID.TID 0000.0001) %MON vort_a_sd                    =   0.0000000000000E+00
(PID.TID 0000.0001) %MON vort_p_mean                  =   0.0000000000000E+00
(PID.TID 0000.0001) %MON vort_p_sd                    =   0.0000000000000E+00
(PID.TID 0000.0001) %MON surfExpan_theta_mean         =   1.7999091632437E-12
(PID.TID 0000.0001) %MON surfExpan_salt_mean          =   3.9564701594276E-19
(PID.TID 0000.0001) // =======================================================
(PID.TID 0000.0001) // End MONITOR dynamic field statistics
(PID.TID 0000.0001) // =======================================================
 cg2d: Sum(rhs),rhsMax =  -3.17065718095249E-14  5.02430297230041E-04
(PID.TID 0000.0001)                    cg2d_init_res =    2.48273127614675E-01
(PID.TID 0000.0001)                       cg2d_iters =    58
(PID.TID 0000.0001)                         cg2d_res =    5.09525271840652E-19
 cg2d: Sum(rhs),rhsMax =  -3.63072270273719E-14  4.99101069053171E-04
 cg2d: Sum(rhs),rhsMax =  -4.86164995522516E-14  4.29800746587535E-04
 cg2d: Sum(rhs),rhsMax =  -5.19959373950982E-14  4.13045463396009E-04
 cg2d: Sum(rhs),rhsMax =  -6.88951730409317E-14  3.37550625781192E-04
(PID.TID 0000.0001) // =======================================================
(PID.TID 0000.0001) // Begin MONITOR dynamic field statistics
(PID.TID 0000.0001) // =======================================================
(PID.TID 0000.0001) %MON time_tsnumber                =                    20
(PID.TID 0000.0001) %MON time_secondsf                =   1.0000000000000E+04
(PID.TID 0000.0001) %MON dynstat_eta_max              =   1.1182879653365E-04
(PID.TID 0000.0001) %MON dynstat_eta_min              =  -4.7888533290131E-06
(PID.TID 0000.0001) %MON dynstat_eta_mean             =   1.0229985843247E-16
(PID.TID 0000.0001) %MON dynstat_eta_sd               =   1.8386783569021E-05
(PID.TID 0000.0001) %MON dynstat_eta_del2             =   1.4008375615410E-06
(PID.TID 0000.0001) %MON dynstat_uvel_max             =   2.2917984121235E-02
(PID.TID 0000.0001) %MON dynstat_uvel_min             =  -2.2917984121235E-02
(PID.TID 0000.0001) %MON dynstat_uvel_mean            =  -2.7462650080446E-08
(PID.TID 0000.0001) %MON dynstat_uvel_sd              =   4.0273407192776E-03
(PID.TID 0000.0001) %MON dynstat_uvel_del2            =   1.0903388202252E-04
(PID.TID 0000.0001) %MON dynstat_vvel_max             =   0.0000000000000E+00
(PID.TID 0000.0001) %MON dynstat_vvel_min             =   0.0000000000000E+00
(PID.TID 0000.0001) %MON dynstat_vvel_mean            =   0.0000000000000E+00
(PID.TID 0000.0001) %MON dynstat_vvel_sd              =   0.0000000000000E+00
(PID.TID 0000.0001) %MON dynstat_vvel_del2            =   0.0000000000000E+00
(PID.TID 0000.0001) %MON dynstat_wvel_max             =   6.7192711481128E-03
(PID.TID 0000.0001) %MON dynstat_wvel_min             =  -2.9013866890775E-03
(PID.TID 0000.0001) %MON dynstat_wvel_mean            =  -2.8874336887596E-20
(PID.TID 0000.0001) %MON dynstat_wvel_sd              =   1.0050191601109E-03
(PID.TID 0000.0001) %MON dynstat_wvel_del2            =   9.7490249946474E-05
(PID.TID 0000.0001) %MON dynstat_theta_max            =   4.9367337410184E-02
(PID.TID 0000.0001) %MON dynstat_theta_min            =  -4.7934334555807E-02
(PID.TID 0000.0001) %MON dynstat_theta_mean           =   1.4672639466557E-02
(PID.TID 0000.0001) %MON dynstat_theta_sd             =   2.7494396749582E-02
(PID.TID 0000.0001) %MON dynstat_theta_del2           =   6.1747896400980E-05
(PID.TID 0000.0001) %MON dynstat_salt_max             =   3.5000000000000E+01
(PID.TID 0000.0001) %MON dynstat_salt_min             =   0.0000000000000E+00
(PID.TID 0000.0001) %MON dynstat_salt_mean            =   3.3847052152665E+01
(PID.TID 0000.0001) %MON dynstat_salt_sd              =   6.2469101096520E+00
(PID.TID 0000.0001) %MON dynstat_salt_del2            =   5.6726094003241E-01
(PID.TID 0000.0001) %MON advcfl_uvel_max              =   5.2556279375764E-02
(PID.TID 0000.0001) %MON advcfl_vvel_max              =   0.0000000000000E+00
(PID.TID 0000.0001) %MON advcfl_wvel_max              =   3.3596355740564E-01
(PID.TID 0000.0001) %MON advcfl_W_hf_max              =   3.3596355740564E-01
(PID.TID 0000.0001) %MON pe_b_mean                    =   1.6114401277665E-11
(PID.TID 0000.0001) %MON ke_max                       =   2.1957134513114E-04
(PID.TID 0000.0001) %MON ke_mean                      =   7.8425906020701E-06
(PID.TID 0000.0001) %MON ke_vol                       =   6.6188141628594E+09
(PID.TID 0000.0001) %MON vort_r_min                   =   0.0000000000000E+00
(PID.TID 0000.0001) %MON vort_r_max                   =   0.0000000000000E+00
(PID.TID 0000.0001) %MON vort_a_mean                  =   0.0000000000000E+00
(PID.TID 0000.0001) %MON vort_a_sd                    =   0.0000000000000E+00
(PID.TID 0000.0001) %MON vort_p_mean                  =   0.0000000000000E+00
(PID.TID 0000.0001) %MON vort_p_sd                    =   0.0000000000000E+00
(PID.TID 0000.0001) %MON surfExpan_theta_mean         =  -1.9404285770344E-12
(PID.TID 0000.0001) %MON surfExpan_salt_mean          =  -6.6386383189887E-20
(PID.TID 0000.0001) // =======================================================
(PID.TID 0000.0001) // End MONITOR dynamic field statistics
(PID.TID 0000.0001) // =======================================================
 cg2d: Sum(rhs),rhsMax =  -7.58533623553773E-14  3.15794230590943E-04
(PID.TID 0000.0001)                    cg2d_init_res =    1.82904418312581E-01
(PID.TID 0000.0001)                       cg2d_iters =    58
(PID.TID 0000.0001)                         cg2d_res =    3.54933658799550E-19
 cg2d: Sum(rhs),rhsMax =  -8.10985257898231E-14  2.89168296487370E-04
 cg2d: Sum(rhs),rhsMax =  -8.55173848672997E-14  2.90431798577177E-04
 cg2d: Sum(rhs),rhsMax =  -8.21287346941188E-14  3.41072694190135E-04
 cg2d: Sum(rhs),rhsMax =  -8.92573300968931E-14  3.17878452878040E-04
(PID.TID 0000.0001) // =======================================================
(PID.TID 0000.0001) // Begin MONITOR dynamic field statistics
(PID.TID 0000.0001) // =======================================================
(PID.TID 0000.0001) %MON time_tsnumber                =                    25
(PID.TID 0000.0001) %MON time_secondsf                =   1.2500000000000E+04
(PID.TID 0000.0001) %MON dynstat_eta_max              =   1.1828616548551E-04
(PID.TID 0000.0001) %MON dynstat_eta_min              =  -6.3665385986085E-06
(PID.TID 0000.0001) %MON dynstat_eta_mean             =   1.2605588467503E-16
(PID.TID 0000.0001) %MON dynstat_eta_sd               =   2.2527879077023E-05
(PID.TID 0000.0001) %MON dynstat_eta_del2             =   1.3982742685329E-06
(PID.TID 0000.0001) %MON dynstat_uvel_max             =   2.2793744255040E-02
(PID.TID 0000.0001) %MON dynstat_uvel_min             =  -2.2844529130039E-02
(PID.TID 0000.0001) %MON dynstat_uvel_mean            =  -4.7938943647785E-08
(PID.TID 0000.0001) %MON dynstat_uvel_sd              =   4.7329870738802E-03
(PID.TID 0000.0001) %MON dynstat_uvel_del2            =   1.0744395060232E-04
(PID.TID 0000.0001) %MON dynstat_vvel_max             =   0.0000000000000E+00
(PID.TID 0000.0001) %MON dynstat_vvel_min             =   0.0000000000000E+00
(PID.TID 0000.0001) %MON dynstat_vvel_mean            =   0.0000000000000E+00
(PID.TID 0000.0001) %MON dynstat_vvel_sd              =   0.0000000000000E+00
(PID.TID 0000.0001) %MON dynstat_vvel_del2            =   0.0000000000000E+00
(PID.TID 0000.0001) %MON dynstat_wvel_max             =   6.6828455469800E-03
(PID.TID 0000.0001) %MON dynstat_wvel_min             =  -2.8175074238288E-03
(PID.TID 0000.0001) %MON dynstat_wvel_mean            =  -4.6326509879697E-21
(PID.TID 0000.0001) %MON dynstat_wvel_sd              =   9.9773771337979E-04
(PID.TID 0000.0001) %MON dynstat_wvel_del2            =   8.4567610259906E-05
(PID.TID 0000.0001) %MON dynstat_theta_max            =   4.9362201833142E-02
(PID.TID 0000.0001) %MON dynstat_theta_min            =  -4.7819782565905E-02
(PID.TID 0000.0001) %MON dynstat_theta_mean           =   1.4851670195689E-02
(PID.TID 0000.0001) %MON dynstat_theta_sd             =   2.7408364090546E-02
(PID.TID 0000.0001) %MON dynstat_theta_del2           =   6.4352349324249E-05
(PID.TID 0000.0001) %MON dynstat_salt_max             =   3.5000000000000E+01
(PID.TID 0000.0001) %MON dynstat_salt_min             =   0.0000000000000E+00
(PID.TID 0000.0001) %MON dynstat_salt_mean            =   3.3847052152665E+01
(PID.TID 0000.0001) %MON dynstat_salt_sd              =   6.2469101096520E+00
(PID.TID 0000.0001) %MON dynstat_salt_del2            =   5.6726094003241E-01
(PID.TID 0000.0001) %MON advcfl_uvel_max              =   5.2387829959865E-02
(PID.TID 0000.0001) %MON advcfl_vvel_max              =   0.0000000000000E+00
(PID.TID 0000.0001) %MON advcfl_wvel_max              =   3.3414227734900E-01
(PID.TID 0000.0001) %MON advcfl_W_hf_max              =   3.3414227734900E-01
(PID.TID 0000.0001) %MON pe_b_mean                    =   2.4190411643633E-11
(PID.TID 0000.0001) %MON ke_max                       =   2.6035682208435E-04
(PID.TID 0000.0001) %MON ke_mean                      =   1.0831620555588E-05
(PID.TID 0000.0001) %MON ke_vol                       =   6.6188141628594E+09
(PID.TID 0000.0001) %MON vort_r_min                   =   0.0000000000000E+00
(PID.TID 0000.0001) %MON vort_r_max                   =   0.0000000000000E+00
(PID.TID 0000.0001) %MON vort_a_mean                  =   0.0000000000000E+00
(PID.TID 0000.0001) %MON vort_a_sd                    =   0.0000000000000E+00
(PID.TID 0000.0001) %MON vort_p_mean                  =   0.0000000000000E+00
(PID.TID 0000.0001) %MON vort_p_sd                    =   0.0000000000000E+00
(PID.TID 0000.0001) %MON surfExpan_theta_mean         =   2.3691265917088E-12
(PID.TID 0000.0001) %MON surfExpan_salt_mean          =   4.7752573483523E-19
(PID.TID 0000.0001) // =======================================================
(PID.TID 0000.0001) // End MONITOR dynamic field statistics
(PID.TID 0000.0001) // =======================================================
 cg2d: Sum(rhs),rhsMax =  -9.19585588232685E-14  3.44765716951800E-04
(PID.TID 0000.0001)                    cg2d_init_res =    2.79040133246383E-01
(PID.TID 0000.0001)                       cg2d_iters =    58
(PID.TID 0000.0001)                         cg2d_res =    1.04911737399841E-18
 cg2d: Sum(rhs),rhsMax =  -1.01078650657782E-13  3.03022745627807E-04
 cg2d: Sum(rhs),rhsMax =  -1.05688529217392E-13  3.13834005193039E-04
 cg2d: Sum(rhs),rhsMax =  -1.27098608330642E-13  2.62634396577263E-04
 cg2d: Sum(rhs),rhsMax =  -1.31469006959140E-13  2.67196315659132E-04
(PID.TID 0000.0001) // =======================================================
(PID.TID 0000.0001) // Begin MONITOR dynamic field statistics
(PID.TID 0000.0001) // =======================================================
(PID.TID 0000.0001) %MON time_tsnumber                =                    30
(PID.TID 0000.0001) %MON time_secondsf                =   1.5000000000000E+04
(PID.TID 0000.0001) %MON dynstat_eta_max              =   1.1618370347467E-04
(PID.TID 0000.0001) %MON dynstat_eta_min              =  -8.2225295573983E-06
(PID.TID 0000.0001) %MON dynstat_eta_mean             =   1.5761872393960E-16
(PID.TID 0000.0001) %MON dynstat_eta_sd               =   2.5734658854379E-05
(PID.TID 0000.0001) %MON dynstat_eta_del2             =   1.3921772855176E-06
(PID.TID 0000.0001) %MON dynstat_uvel_max             =   2.2859842249557E-02
(PID.TID 0000.0001) %MON dynstat_uvel_min             =  -2.3409630150852E-02
(PID.TID 0000.0001) %MON dynstat_uvel_mean            =  -2.1561037892156E-08
(PID.TID 0000.0001) %MON dynstat_uvel_sd              =   5.1630069869395E-03
(PID.TID 0000.0001) %MON dynstat_uvel_del2            =   1.3141652265573E-04
(PID.TID 0000.0001) %MON dynstat_vvel_max             =   0.0000000000000E+00
(PID.TID 0000.0001) %MON dynstat_vvel_min             =   0.0000000000000E+00
(PID.TID 0000.0001) %MON dynstat_vvel_mean            =   0.0000000000000E+00
(PID.TID 0000.0001) %MON dynstat_vvel_sd              =   0.0000000000000E+00
(PID.TID 0000.0001) %MON dynstat_vvel_del2            =   0.0000000000000E+00
(PID.TID 0000.0001) %MON dynstat_wvel_max             =   5.8247946164955E-03
(PID.TID 0000.0001) %MON dynstat_wvel_min             =  -2.4924089906653E-03
(PID.TID 0000.0001) %MON dynstat_wvel_mean            =   1.0553321294756E-20
(PID.TID 0000.0001) %MON dynstat_wvel_sd              =   9.0712483353481E-04
(PID.TID 0000.0001) %MON dynstat_wvel_del2            =   7.0565531913348E-05
(PID.TID 0000.0001) %MON dynstat_theta_max            =   4.9241226845175E-02
(PID.TID 0000.0001) %MON dynstat_theta_min            =  -4.7707633110511E-02
(PID.TID 0000.0001) %MON dynstat_theta_mean           =   1.4987451395732E-02
(PID.TID 0000.0001) %MON dynstat_theta_sd             =   2.7331968778209E-02
(PID.TID 0000.0001) %MON dynstat_theta_del2           =   7.5885084297642E-05
(PID.TID 0000.0001) %MON dynstat_salt_max             =   3.5000000000000E+01
(PID.TID 0000.0001) %MON dynstat_salt_min             =   0.0000000000000E+00
(PID.TID 0000.0001) %MON dynstat_salt_mean            =   3.3847052152665E+01
(PID.TID 0000.0001) %MON dynstat_salt_sd              =   6.2469101096520E+00
(PID.TID 0000.0001) %MON dynstat_salt_del2            =   5.6726094003241E-01
(PID.TID 0000.0001) %MON advcfl_uvel_max              =   5.3683738315865E-02
(PID.TID 0000.0001) %MON advcfl_vvel_max              =   0.0000000000000E+00
(PID.TID 0000.0001) %MON advcfl_wvel_max              =   2.9123973082477E-01
(PID.TID 0000.0001) %MON advcfl_W_hf_max              =   2.9123973082477E-01
(PID.TID 0000.0001) %MON pe_b_mean                    =   3.1567448245609E-11
(PID.TID 0000.0001) %MON ke_max                       =   2.5039958615268E-04
(PID.TID 0000.0001) %MON ke_mean                      =   1.2889267087859E-05
(PID.TID 0000.0001) %MON ke_vol                       =   6.6188141628594E+09
(PID.TID 0000.0001) %MON vort_r_min                   =   0.0000000000000E+00
(PID.TID 0000.0001) %MON vort_r_max                   =   0.0000000000000E+00
(PID.TID 0000.0001) %MON vort_a_mean                  =   0.0000000000000E+00
(PID.TID 0000.0001) %MON vort_a_sd                    =   0.0000000000000E+00
(PID.TID 0000.0001) %MON vort_p_mean                  =   0.0000000000000E+00
(PID.TID 0000.0001) %MON vort_p_sd                    =   0.0000000000000E+00
(PID.TID 0000.0001) %MON surfExpan_theta_mean         =  -1.1686232022517E-12
(PID.TID 0000.0001) %MON surfExpan_salt_mean          =   3.2017709111735E-19
(PID.TID 0000.0001) // =======================================================
(PID.TID 0000.0001) // End MONITOR dynamic field statistics
(PID.TID 0000.0001) // =======================================================
 cg2d: Sum(rhs),rhsMax =  -1.28834822584606E-13  3.02827378696844E-04
(PID.TID 0000.0001)                    cg2d_init_res =    2.85698361670437E-01
(PID.TID 0000.0001)                       cg2d_iters =    58
(PID.TID 0000.0001)                         cg2d_res =    4.99228771375253E-19
 cg2d: Sum(rhs),rhsMax =  -1.33264222140078E-13  3.20759636729930E-04
 cg2d: Sum(rhs),rhsMax =  -1.27488135066162E-13  3.36148975337809E-04
 cg2d: Sum(rhs),rhsMax =  -1.34937186749805E-13  3.33795585593826E-04
 cg2d: Sum(rhs),rhsMax =  -1.41499103558339E-13  3.32385001045461E-04
(PID.TID 0000.0001) // =======================================================
(PID.TID 0000.0001) // Begin MONITOR dynamic field statistics
(PID.TID 0000.0001) // =======================================================
(PID.TID 0000.0001) %MON time_tsnumber                =                    35
(PID.TID 0000.0001) %MON time_secondsf                =   1.7500000000000E+04
(PID.TID 0000.0001) %MON dynstat_eta_max              =   1.1190350897612E-04
(PID.TID 0000.0001) %MON dynstat_eta_min              =  -9.5174486562023E-06
(PID.TID 0000.0001) %MON dynstat_eta_mean             =   1.9282118635925E-16
(PID.TID 0000.0001) %MON dynstat_eta_sd               =   2.7420246676465E-05
(PID.TID 0000.0001) %MON dynstat_eta_del2             =   1.2360712436031E-06
(PID.TID 0000.0001) %MON dynstat_uvel_max             =   2.2938735980025E-02
(PID.TID 0000.0001) %MON dynstat_uvel_min             =  -2.3466469154775E-02
(PID.TID 0000.0001) %MON dynstat_uvel_mean            =  -4.3528093610052E-08
(PID.TID 0000.0001) %MON dynstat_uvel_sd              =   5.3479200153616E-03
(PID.TID 0000.0001) %MON dynstat_uvel_del2            =   1.7570082430833E-04
(PID.TID 0000.0001) %MON dynstat_vvel_max             =   0.0000000000000E+00
(PID.TID 0000.0001) %MON dynstat_vvel_min             =   0.0000000000000E+00
(PID.TID 0000.0001) %MON dynstat_vvel_mean            =   0.0000000000000E+00
(PID.TID 0000.0001) %MON dynstat_vvel_sd              =   0.0000000000000E+00
(PID.TID 0000.0001) %MON dynstat_vvel_del2            =   0.0000000000000E+00
(PID.TID 0000.0001) %MON dynstat_wvel_max             =   4.2506117985476E-03
(PID.TID 0000.0001) %MON dynstat_wvel_min             =  -2.7143343066952E-03
(PID.TID 0000.0001) %MON dynstat_wvel_mean            =  -2.6635330168538E-20
(PID.TID 0000.0001) %MON dynstat_wvel_sd              =   7.7736214672431E-04
(PID.TID 0000.0001) %MON dynstat_wvel_del2            =   4.2452898804144E-05
(PID.TID 0000.0001) %MON dynstat_theta_max            =   4.9019285768377E-02
(PID.TID 0000.0001) %MON dynstat_theta_min            =  -4.7820714231623E-02
(PID.TID 0000.0001) %MON dynstat_theta_mean           =   1.5063240077587E-02
(PID.TID 0000.0001) %MON dynstat_theta_sd             =   2.7274302691516E-02
(PID.TID 0000.0001) %MON dynstat_theta_del2           =   8.9000418463205E-05
(PID.TID 0000.0001) %MON dynstat_salt_max             =   3.5000000000000E+01
(PID.TID 0000.0001) %MON dynstat_salt_min             =   0.0000000000000E+00
(PID.TID 0000.0001) %MON dynstat_salt_mean            =   3.3847052152665E+01
(PID.TID 0000.0001) %MON dynstat_salt_sd              =   6.2469101096520E+00
(PID.TID 0000.0001) %MON dynstat_salt_del2            =   5.6726094003241E-01
(PID.TID 0000.0001) %MON advcfl_uvel_max              =   5.3814083400049E-02
(PID.TID 0000.0001) %MON advcfl_vvel_max              =   0.0000000000000E+00
(PID.TID 0000.0001) %MON advcfl_wvel_max              =   2.1253058992738E-01
(PID.TID 0000.0001) %MON advcfl_W_hf_max              =   2.1253058992738E-01
(PID.TID 0000.0001) %MON pe_b_mean                    =   3.5838131692740E-11
(PID.TID 0000.0001) %MON ke_max                       =   2.5041531928340E-04
(PID.TID 0000.0001) %MON ke_mean                      =   1.3829058227744E-05
(PID.TID 0000.0001) %MON ke_vol                       =   6.6188141628594E+09
(PID.TID 0000.0001) %MON vort_r_min                   =   0.0000000000000E+00
(PID.TID 0000.0001) %MON vort_r_max                   =   0.0000000000000E+00
(PID.TID 0000.0001) %MON vort_a_mean                  =   0.0000000000000E+00
(PID.TID 0000.0001) %MON vort_a_sd                    =   0.0000000000000E+00
(PID.TID 0000.0001) %MON vort_p_mean                  =   0.0000000000000E+00
(PID.TID 0000.0001) %MON vort_p_sd                    =   0.0000000000000E+00
(PID.TID 0000.0001) %MON surfExpan_theta_mean         =   2.8505337248065E-13
(PID.TID 0000.0001) %MON surfExpan_salt_mean          =  -4.8252109528044E-19
(PID.TID 0000.0001) // =======================================================
(PID.TID 0000.0001) // End MONITOR dynamic field statistics
(PID.TID 0000.0001) // =======================================================
 cg2d: Sum(rhs),rhsMax =  -1.41382619587432E-13  3.14858751336944E-04
(PID.TID 0000.0001)                    cg2d_init_res =    2.55588051807494E-01
(PID.TID 0000.0001)                       cg2d_iters =    58
(PID.TID 0000.0001)                         cg2d_res =    2.25235543398282E-19
 cg2d: Sum(rhs),rhsMax =  -1.59051089898381E-13  3.02967163348435E-04
 cg2d: Sum(rhs),rhsMax =  -1.75109818138786E-13  2.77247781453186E-04
 cg2d: Sum(rhs),rhsMax =  -1.62963392780213E-13  2.98699603183372E-04
 cg2d: Sum(rhs),rhsMax =  -1.37713787855959E-13  3.37198187483435E-04
(PID.TID 0000.0001) // =======================================================
(PID.TID 0000.0001) // Begin MONITOR dynamic field statistics
(PID.TID 0000.0001) // =======================================================
(PID.TID 0000.0001) %MON time_tsnumber                =                    40
(PID.TID 0000.0001) %MON time_secondsf                =   2.0000000000000E+04
(PID.TID 0000.0001) %MON dynstat_eta_max              =   1.1386349225111E-04
(PID.TID 0000.0001) %MON dynstat_eta_min              =  -1.0236255185950E-05
(PID.TID 0000.0001) %MON dynstat_eta_mean             =   2.1340941085917E-16
(PID.TID 0000.0001) %MON dynstat_eta_sd               =   2.7977196937303E-05
(PID.TID 0000.0001) %MON dynstat_eta_del2             =   9.3635484887222E-07
(PID.TID 0000.0001) %MON dynstat_uvel_max             =   2.2602631979400E-02
(PID.TID 0000.0001) %MON dynstat_uvel_min             =  -2.2891226905557E-02
(PID.TID 0000.0001) %MON dynstat_uvel_mean            =   8.6150177358191E-09
(PID.TID 0000.0001) %MON dynstat_uvel_sd              =   5.3663799857227E-03
(PID.TID 0000.0001) %MON dynstat_uvel_del2            =   2.0521742281234E-04
(PID.TID 0000.0001) %MON dynstat_vvel_max             =   0.0000000000000E+00
(PID.TID 0000.0001) %MON dynstat_vvel_min             =   0.0000000000000E+00
(PID.TID 0000.0001) %MON dynstat_vvel_mean            =   0.0000000000000E+00
(PID.TID 0000.0001) %MON dynstat_vvel_sd              =   0.0000000000000E+00
(PID.TID 0000.0001) %MON dynstat_vvel_del2            =   0.0000000000000E+00
(PID.TID 0000.0001) %MON dynstat_wvel_max             =   2.7507964845167E-03
(PID.TID 0000.0001) %MON dynstat_wvel_min             =  -2.6422174397399E-03
(PID.TID 0000.0001) %MON dynstat_wvel_mean            =  -4.2244069029581E-21
(PID.TID 0000.0001) %MON dynstat_wvel_sd              =   6.8851420958027E-04
(PID.TID 0000.0001) %MON dynstat_wvel_del2            =   3.9550069254017E-05
(PID.TID 0000.0001) %MON dynstat_theta_max            =   4.8723665244200E-02
(PID.TID 0000.0001) %MON dynstat_theta_min            =  -4.8116334755800E-02
(PID.TID 0000.0001) %MON dynstat_theta_mean           =   1.5069562527591E-02
(PID.TID 0000.0001) %MON dynstat_theta_sd             =   2.7246705258895E-02
(PID.TID 0000.0001) %MON dynstat_theta_del2           =   1.0541191235429E-04
(PID.TID 0000.0001) %MON dynstat_salt_max             =   3.5000000000000E+01
(PID.TID 0000.0001) %MON dynstat_salt_min             =   0.0000000000000E+00
(PID.TID 0000.0001) %MON dynstat_salt_mean            =   3.3847052152665E+01
(PID.TID 0000.0001) %MON dynstat_salt_sd              =   6.2469101096520E+00
(PID.TID 0000.0001) %MON dynstat_salt_del2            =   5.6726094003241E-01
(PID.TID 0000.0001) %MON advcfl_uvel_max              =   5.2494918843571E-02
(PID.TID 0000.0001) %MON advcfl_vvel_max              =   0.0000000000000E+00
(PID.TID 0000.0001) %MON advcfl_wvel_max              =   1.3753982422584E-01
(PID.TID 0000.0001) %MON advcfl_W_hf_max              =   1.3753982422584E-01
(PID.TID 0000.0001) %MON pe_b_mean                    =   3.7308779845970E-11
(PID.TID 0000.0001) %MON ke_max                       =   2.5520019847848E-04
(PID.TID 0000.0001) %MON ke_mean                      =   1.3924693374106E-05
(PID.TID 0000.0001) %MON ke_vol                       =   6.6188141628594E+09
(PID.TID 0000.0001) %MON vort_r_min                   =   0.0000000000000E+00
(PID.TID 0000.0001) %MON vort_r_max                   =   0.0000000000000E+00
(PID.TID 0000.0001) %MON vort_a_mean                  =   0.0000000000000E+00
(PID.TID 0000.0001) %MON vort_a_sd                    =   0.0000000000000E+00
(PID.TID 0000.0001) %MON vort_p_mean                  =   0.0000000000000E+00
(PID.TID 0000.0001) %MON vort_p_sd                    =   0.0000000000000E+00
(PID.TID 0000.0001) %MON surfExpan_theta_mean         =   6.5194340358433E-13
(PID.TID 0000.0001) %MON surfExpan_salt_mean          =   3.9421909226827E-19
(PID.TID 0000.0001) // =======================================================
(PID.TID 0000.0001) // End MONITOR dynamic field statistics
(PID.TID 0000.0001) // =======================================================
 cg2d: Sum(rhs),rhsMax =  -1.32092484194692E-13  3.68523900975251E-04
(PID.TID 0000.0001)                    cg2d_init_res =    1.93336978704797E-01
(PID.TID 0000.0001)                       cg2d_iters =    58
(PID.TID 0000.0001)                         cg2d_res =    1.25980139472529E-19
 cg2d: Sum(rhs),rhsMax =  -1.13084034866241E-13  4.17467651536250E-04
 cg2d: Sum(rhs),rhsMax =  -1.12718563866424E-13  4.51345116155473E-04
 cg2d: Sum(rhs),rhsMax =  -1.05055666856785E-13  4.97944016185267E-04
 cg2d: Sum(rhs),rhsMax =  -9.53408698018722E-14  5.32005914753251E-04
(PID.TID 0000.0001) // =======================================================
(PID.TID 0000.0001) // Begin MONITOR dynamic field statistics
(PID.TID 0000.0001) // =======================================================
(PID.TID 0000.0001) %MON time_tsnumber                =                    45
(PID.TID 0000.0001) %MON time_secondsf                =   2.2500000000000E+04
(PID.TID 0000.0001) %MON dynstat_eta_max              =   1.1430060807987E-04
(PID.TID 0000.0001) %MON dynstat_eta_min              =  -1.0939282251051E-05
(PID.TID 0000.0001) %MON dynstat_eta_mean             =   2.2575549716821E-16
(PID.TID 0000.0001) %MON dynstat_eta_sd               =   2.7779248885378E-05
(PID.TID 0000.0001) %MON dynstat_eta_del2             =   8.5506693053973E-07
(PID.TID 0000.0001) %MON dynstat_uvel_max             =   2.2698461696016E-02
(PID.TID 0000.0001) %MON dynstat_uvel_min             =  -2.3007469605347E-02
(PID.TID 0000.0001) %MON dynstat_uvel_mean            =  -1.2722378010317E-09
(PID.TID 0000.0001) %MON dynstat_uvel_sd              =   5.3478919999015E-03
(PID.TID 0000.0001) %MON dynstat_uvel_del2            =   2.1502240690056E-04
(PID.TID 0000.0001) %MON dynstat_vvel_max             =   0.0000000000000E+00
(PID.TID 0000.0001) %MON dynstat_vvel_min             =   0.0000000000000E+00
(PID.TID 0000.0001) %MON dynstat_vvel_mean            =   0.0000000000000E+00
(PID.TID 0000.0001) %MON dynstat_vvel_sd              =   0.0000000000000E+00
(PID.TID 0000.0001) %MON dynstat_vvel_del2            =   0.0000000000000E+00
(PID.TID 0000.0001) %MON dynstat_wvel_max             =   3.1969869869515E-03
(PID.TID 0000.0001) %MON dynstat_wvel_min             =  -2.3897546631818E-03
(PID.TID 0000.0001) %MON dynstat_wvel_mean            =   6.9396055762253E-22
(PID.TID 0000.0001) %MON dynstat_wvel_sd              =   7.2211126276271E-04
(PID.TID 0000.0001) %MON dynstat_wvel_del2            =   6.7579028401709E-05
(PID.TID 0000.0001) %MON dynstat_theta_max            =   4.8415755644265E-02
(PID.TID 0000.0001) %MON dynstat_theta_min            =  -4.8449289534453E-02
(PID.TID 0000.0001) %MON dynstat_theta_mean           =   1.5005502928396E-02
(PID.TID 0000.0001) %MON dynstat_theta_sd             =   2.7259140747414E-02
(PID.TID 0000.0001) %MON dynstat_theta_del2           =   1.2153814330658E-04
(PID.TID 0000.0001) %MON dynstat_salt_max             =   3.5000000000000E+01
(PID.TID 0000.0001) %MON dynstat_salt_min             =   0.0000000000000E+00
(PID.TID 0000.0001) %MON dynstat_salt_mean            =   3.3847052152665E+01
(PID.TID 0000.0001) %MON dynstat_salt_sd              =   6.2469101096520E+00
(PID.TID 0000.0001) %MON dynstat_salt_del2            =   5.6726094003241E-01
(PID.TID 0000.0001) %MON advcfl_uvel_max              =   5.2761490448352E-02
(PID.TID 0000.0001) %MON advcfl_vvel_max              =   0.0000000000000E+00
(PID.TID 0000.0001) %MON advcfl_wvel_max              =   1.5984934934757E-01
(PID.TID 0000.0001) %MON advcfl_W_hf_max              =   1.5984934934757E-01
(PID.TID 0000.0001) %MON pe_b_mean                    =   3.6782703275670E-11
(PID.TID 0000.0001) %MON ke_max                       =   2.4859377628726E-04
(PID.TID 0000.0001) %MON ke_mean                      =   1.3828913386199E-05
(PID.TID 0000.0001) %MON ke_vol                       =   6.6188141628594E+09
(PID.TID 0000.0001) %MON vort_r_min                   =   0.0000000000000E+00
(PID.TID 0000.0001) %MON vort_r_max                   =   0.0000000000000E+00
(PID.TID 0000.0001) %MON vort_a_mean                  =   0.0000000000000E+00
(PID.TID 0000.0001) %MON vort_a_sd                    =   0.0000000000000E+00
(PID.TID 0000.0001) %MON vort_p_mean                  =   0.0000000000000E+00
(PID.TID 0000.0001) %MON vort_p_sd                    =   0.0000000000000E+00
(PID.TID 0000.0001) %MON surfExpan_theta_mean         =  -1.8365923953640E-12
(PID.TID 0000.0001) %MON surfExpan_salt_mean          =   1.1504804110371E-19
(PID.TID 0000.0001) // =======================================================
(PID.TID 0000.0001) // End MONITOR dynamic field statistics
(PID.TID 0000.0001) // =======================================================
 cg2d: Sum(rhs),rhsMax =  -8.53972993123016E-14  5.73912075716569E-04
(PID.TID 0000.0001)                    cg2d_init_res =    1.31788486641383E-01
(PID.TID 0000.0001)                       cg2d_iters =    58
(PID.TID 0000.0001)                         cg2d_res =    5.46268561151841E-20
 cg2d: Sum(rhs),rhsMax =  -7.61922399087830E-14  6.05876331619880E-04
 cg2d: Sum(rhs),rhsMax =  -7.52852404169949E-14  6.40987869721786E-04
 cg2d: Sum(rhs),rhsMax =  -7.00077609815455E-14  6.68935444566082E-04
 cg2d: Sum(rhs),rhsMax =  -6.83672838969944E-14  6.95630597679281E-04
(PID.TID 0000.0001) // =======================================================
(PID.TID 0000.0001) // Begin MONITOR dynamic field statistics
(PID.TID 0000.0001) // =======================================================
(PID.TID 0000.0001) %MON time_tsnumber                =                    50
(PID.TID 0000.0001) %MON time_secondsf                =   2.5000000000000E+04
(PID.TID 0000.0001) %MON dynstat_eta_max              =   1.1075926886623E-04
(PID.TID 0000.0001) %MON dynstat_eta_min              =  -3.0627887796388E-05
(PID.TID 0000.0001) %MON dynstat_eta_mean             =   2.1777723924038E-16
(PID.TID 0000.0001) %MON dynstat_eta_sd               =   2.7744440308731E-05
(PID.TID 0000.0001) %MON dynstat_eta_del2             =   1.2491621933565E-06
(PID.TID 0000.0001) %MON dynstat_uvel_max             =   2.3069175744284E-02
(PID.TID 0000.0001) %MON dynstat_uvel_min             =  -2.3311909522623E-02
(PID.TID 0000.0001) %MON dynstat_uvel_mean            =   4.2985997910865E-08
(PID.TID 0000.0001) %MON dynstat_uvel_sd              =   5.4425577494116E-03
(PID.TID 0000.0001) %MON dynstat_uvel_del2            =   2.2232804702825E-04
(PID.TID 0000.0001) %MON dynstat_vvel_max             =   0.0000000000000E+00
(PID.TID 0000.0001) %MON dynstat_vvel_min             =   0.0000000000000E+00
(PID.TID 0000.0001) %MON dynstat_vvel_mean            =   0.0000000000000E+00
(PID.TID 0000.0001) %MON dynstat_vvel_sd              =   0.0000000000000E+00
(PID.TID 0000.0001) %MON dynstat_vvel_del2            =   0.0000000000000E+00
(PID.TID 0000.0001) %MON dynstat_wvel_max             =   3.2066299036332E-03
(PID.TID 0000.0001) %MON dynstat_wvel_min             =  -2.5437838126213E-03
(PID.TID 0000.0001) %MON dynstat_wvel_mean            =  -6.8669037288390E-21
(PID.TID 0000.0001) %MON dynstat_wvel_sd              =   8.6820432089947E-04
(PID.TID 0000.0001) %MON dynstat_wvel_del2            =   9.1767736375204E-05
(PID.TID 0000.0001) %MON dynstat_theta_max            =   4.8272091849416E-02
(PID.TID 0000.0001) %MON dynstat_theta_min            =  -4.8778643298655E-02
(PID.TID 0000.0001) %MON dynstat_theta_mean           =   1.4879003734748E-02
(PID.TID 0000.0001) %MON dynstat_theta_sd             =   2.7315543225448E-02
(PID.TID 0000.0001) %MON dynstat_theta_del2           =   1.2643681360598E-04
(PID.TID 0000.0001) %MON dynstat_salt_max             =   3.5000000000000E+01
(PID.TID 0000.0001) %MON dynstat_salt_min             =   0.0000000000000E+00
(PID.TID 0000.0001) %MON dynstat_salt_mean            =   3.3847052152665E+01
(PID.TID 0000.0001) %MON dynstat_salt_sd              =   6.2469101096520E+00
(PID.TID 0000.0001) %MON dynstat_salt_del2            =   5.6726094003241E-01
(PID.TID 0000.0001) %MON advcfl_uvel_max              =   5.3459642138347E-02
(PID.TID 0000.0001) %MON advcfl_vvel_max              =   0.0000000000000E+00
(PID.TID 0000.0001) %MON advcfl_wvel_max              =   1.6033149518166E-01
(PID.TID 0000.0001) %MON advcfl_W_hf_max              =   1.6033149518166E-01
(PID.TID 0000.0001) %MON pe_b_mean                    =   3.6690580455296E-11
(PID.TID 0000.0001) %MON ke_max                       =   2.3754613610518E-04
(PID.TID 0000.0001) %MON ke_mean                      =   1.4322831752235E-05
(PID.TID 0000.0001) %MON ke_vol                       =   6.6188141628594E+09
(PID.TID 0000.0001) %MON vort_r_min                   =   0.0000000000000E+00
(PID.TID 0000.0001) %MON vort_r_max                   =   0.0000000000000E+00
(PID.TID 0000.0001) %MON vort_a_mean                  =   0.0000000000000E+00
(PID.TID 0000.0001) %MON vort_a_sd                    =   0.0000000000000E+00
(PID.TID 0000.0001) %MON vort_p_mean                  =   0.0000000000000E+00
(PID.TID 0000.0001) %MON vort_p_sd                    =   0.0000000000000E+00
(PID.TID 0000.0001) %MON surfExpan_theta_mean         =   8.7881497730102E-13
(PID.TID 0000.0001) %MON surfExpan_salt_mean          =  -3.6518815025502E-19
(PID.TID 0000.0001) // =======================================================
(PID.TID 0000.0001) // End MONITOR dynamic field statistics
(PID.TID 0000.0001) // =======================================================
 cg2d: Sum(rhs),rhsMax =  -7.10267619458832E-14  7.18169737129129E-04
(PID.TID 0000.0001)                    cg2d_init_res =    9.55122805281795E-02
(PID.TID 0000.0001)                       cg2d_iters =    58
(PID.TID 0000.0001)                         cg2d_res =    2.46770843934139E-19
 cg2d: Sum(rhs),rhsMax =  -6.20634440514451E-14  7.35378536748418E-04
 cg2d: Sum(rhs),rhsMax =  -6.15408670746366E-14  7.51633341513946E-04
 cg2d: Sum(rhs),rhsMax =  -6.15630695022500E-14  7.58766710235713E-04
 cg2d: Sum(rhs),rhsMax =  -6.02647678938847E-14  7.68228754701650E-04
(PID.TID 0000.0001) // =======================================================
(PID.TID 0000.0001) // Begin MONITOR dynamic field statistics
(PID.TID 0000.0001) // =======================================================
(PID.TID 0000.0001) %MON time_tsnumber                =                    55
(PID.TID 0000.0001) %MON time_secondsf                =   2.7500000000000E+04
(PID.TID 0000.0001) %MON dynstat_eta_max              =   1.1441458689205E-04
(PID.TID 0000.0001) %MON dynstat_eta_min              =  -8.7092581608989E-05
(PID.TID 0000.0001) %MON dynstat_eta_mean             =   2.1321112032883E-16
(PID.TID 0000.0001) %MON dynstat_eta_sd               =   2.9708965912591E-05
(PID.TID 0000.0001) %MON dynstat_eta_del2             =   1.7665073117914E-06
(PID.TID 0000.0001) %MON dynstat_uvel_max             =   2.2778050975816E-02
(PID.TID 0000.0001) %MON dynstat_uvel_min             =  -2.2956020397019E-02
(PID.TID 0000.0001) %MON dynstat_uvel_mean            =   3.4410369133308E-08
(PID.TID 0000.0001) %MON dynstat_uvel_sd              =   5.7330695561900E-03
(PID.TID 0000.0001) %MON dynstat_uvel_del2            =   2.2217299439577E-04
(PID.TID 0000.0001) %MON dynstat_vvel_max             =   0.0000000000000E+00
(PID.TID 0000.0001) %MON dynstat_vvel_min             =   0.0000000000000E+00
(PID.TID 0000.0001) %MON dynstat_vvel_mean            =   0.0000000000000E+00
(PID.TID 0000.0001) %MON dynstat_vvel_sd              =   0.0000000000000E+00
(PID.TID 0000.0001) %MON dynstat_vvel_del2            =   0.0000000000000E+00
(PID.TID 0000.0001) %MON dynstat_wvel_max             =   3.2919569190220E-03
(PID.TID 0000.0001) %MON dynstat_wvel_min             =  -4.5670763291970E-03
(PID.TID 0000.0001) %MON dynstat_wvel_mean            =  -1.2287750866228E-20
(PID.TID 0000.0001) %MON dynstat_wvel_sd              =   1.0435469753347E-03
(PID.TID 0000.0001) %MON dynstat_wvel_del2            =   1.0890436062716E-04
(PID.TID 0000.0001) %MON dynstat_theta_max            =   4.8133584010659E-02
(PID.TID 0000.0001) %MON dynstat_theta_min            =  -4.9063903507753E-02
(PID.TID 0000.0001) %MON dynstat_theta_mean           =   1.4705874217986E-02
(PID.TID 0000.0001) %MON dynstat_theta_sd             =   2.7410302593885E-02
(PID.TID 0000.0001) %MON dynstat_theta_del2           =   1.2659774546715E-04
(PID.TID 0000.0001) %MON dynstat_salt_max             =   3.5000000000000E+01
(PID.TID 0000.0001) %MON dynstat_salt_min             =   0.0000000000000E+00
(PID.TID 0000.0001) %MON dynstat_salt_mean            =   3.3847052152665E+01
(PID.TID 0000.0001) %MON dynstat_salt_sd              =   6.2469101096520E+00
(PID.TID 0000.0001) %MON dynstat_salt_del2            =   5.6726094003241E-01
(PID.TID 0000.0001) %MON advcfl_uvel_max              =   5.2643505421735E-02
(PID.TID 0000.0001) %MON advcfl_vvel_max              =   0.0000000000000E+00
(PID.TID 0000.0001) %MON advcfl_wvel_max              =   2.2835381645985E-01
(PID.TID 0000.0001) %MON advcfl_W_hf_max              =   2.2835381645985E-01
(PID.TID 0000.0001) %MON pe_b_mean                    =   4.2070504214549E-11
(PID.TID 0000.0001) %MON ke_max                       =   2.4694490023704E-04
(PID.TID 0000.0001) %MON ke_mean                      =   1.5892683112833E-05
(PID.TID 0000.0001) %MON ke_vol                       =   6.6188141628594E+09
(PID.TID 0000.0001) %MON vort_r_min                   =   0.0000000000000E+00
(PID.TID 0000.0001) %MON vort_r_max                   =   0.0000000000000E+00
(PID.TID 0000.0001) %MON vort_a_mean                  =   0.0000000000000E+00
(PID.TID 0000.0001) %MON vort_a_sd                    =   0.0000000000000E+00
(PID.TID 0000.0001) %MON vort_p_mean                  =   0.0000000000000E+00
(PID.TID 0000.0001) %MON vort_p_sd                    =   0.0000000000000E+00
(PID.TID 0000.0001) %MON surfExpan_theta_mean         =  -1.1699716916707E-12
(PID.TID 0000.0001) %MON surfExpan_salt_mean          =  -1.9126040338928E-21
(PID.TID 0000.0001) // =======================================================
(PID.TID 0000.0001) // End MONITOR dynamic field statistics
(PID.TID 0000.0001) // =======================================================
 cg2d: Sum(rhs),rhsMax =  -6.24283475391882E-14  7.64963594599415E-04
(PID.TID 0000.0001)                    cg2d_init_res =    8.01869959755519E-02
(PID.TID 0000.0001)                       cg2d_iters =    58
(PID.TID 0000.0001)                         cg2d_res =    1.45245904890318E-19
 cg2d: Sum(rhs),rhsMax =  -5.71122366250804E-14  7.67275824717187E-04
 cg2d: Sum(rhs),rhsMax =  -6.02991574315433E-14  7.53324583725688E-04
 cg2d: Sum(rhs),rhsMax =  -5.41241610381503E-14  7.48059089606376E-04
 cg2d: Sum(rhs),rhsMax =  -5.42771123185348E-14  7.23025543091392E-04
(PID.TID 0000.0001) // =======================================================
(PID.TID 0000.0001) // Begin MONITOR dynamic field statistics
(PID.TID 0000.0001) // =======================================================
(PID.TID 0000.0001) %MON time_tsnumber                =                    60
(PID.TID 0000.0001) %MON time_secondsf                =   3.0000000000000E+04
(PID.TID 0000.0001) %MON dynstat_eta_max              =   1.1632642428726E-04
(PID.TID 0000.0001) %MON dynstat_eta_min              =  -1.3586796378279E-04
(PID.TID 0000.0001) %MON dynstat_eta_mean             =   1.8418422185199E-16
(PID.TID 0000.0001) %MON dynstat_eta_sd               =   3.3485078171988E-05
(PID.TID 0000.0001) %MON dynstat_eta_del2             =   2.1351579028212E-06
(PID.TID 0000.0001) %MON dynstat_uvel_max             =   2.2418187834276E-02
(PID.TID 0000.0001) %MON dynstat_uvel_min             =  -2.2537756721698E-02
(PID.TID 0000.0001) %MON dynstat_uvel_mean            =   5.2344769715643E-08
(PID.TID 0000.0001) %MON dynstat_uvel_sd              =   6.1833631930257E-03
(PID.TID 0000.0001) %MON dynstat_uvel_del2            =   2.1849271466537E-04
(PID.TID 0000.0001) %MON dynstat_vvel_max             =   0.0000000000000E+00
(PID.TID 0000.0001) %MON dynstat_vvel_min             =   0.0000000000000E+00
(PID.TID 0000.0001) %MON dynstat_vvel_mean            =   0.0000000000000E+00
(PID.TID 0000.0001) %MON dynstat_vvel_sd              =   0.0000000000000E+00
(PID.TID 0000.0001) %MON dynstat_vvel_del2            =   0.0000000000000E+00
(PID.TID 0000.0001) %MON dynstat_wvel_max             =   3.3121616622407E-03
(PID.TID 0000.0001) %MON dynstat_wvel_min             =  -6.0288676758336E-03
(PID.TID 0000.0001) %MON dynstat_wvel_mean            =  -1.3724217162572E-20
(PID.TID 0000.0001) %MON dynstat_wvel_sd              =   1.1815249351601E-03
(PID.TID 0000.0001) %MON dynstat_wvel_del2            =   1.1458127700703E-04
(PID.TID 0000.0001) %MON dynstat_theta_max            =   4.8026380564824E-02
(PID.TID 0000.0001) %MON dynstat_theta_min            =  -4.9269998722252E-02
(PID.TID 0000.0001) %MON dynstat_theta_mean           =   1.4507599684624E-02
(PID.TID 0000.0001) %MON dynstat_theta_sd             =   2.7528160458055E-02
(PID.TID 0000.0001) %MON dynstat_theta_del2           =   1.2775955693248E-04
(PID.TID 0000.0001) %MON dynstat_salt_max             =   3.5000000000000E+01
(PID.TID 0000.0001) %MON dynstat_salt_min             =   0.0000000000000E+00
(PID.TID 0000.0001) %MON dynstat_salt_mean            =   3.3847052152665E+01
(PID.TID 0000.0001) %MON dynstat_salt_sd              =   6.2469101096520E+00
(PID.TID 0000.0001) %MON dynstat_salt_del2            =   5.6726094003241E-01
(PID.TID 0000.0001) %MON advcfl_uvel_max              =   5.1684329324194E-02
(PID.TID 0000.0001) %MON advcfl_vvel_max              =   0.0000000000000E+00
(PID.TID 0000.0001) %MON advcfl_wvel_max              =   3.0144338379168E-01
(PID.TID 0000.0001) %MON advcfl_W_hf_max              =   3.0144338379168E-01
(PID.TID 0000.0001) %MON pe_b_mean                    =   5.3444778367849E-11
(PID.TID 0000.0001) %MON ke_max                       =   2.4616953712650E-04
(PID.TID 0000.0001) %MON ke_mean                      =   1.8487249876176E-05
(PID.TID 0000.0001) %MON ke_vol                       =   6.6188141628594E+09
(PID.TID 0000.0001) %MON vort_r_min                   =   0.0000000000000E+00
(PID.TID 0000.0001) %MON vort_r_max                   =   0.0000000000000E+00
(PID.TID 0000.0001) %MON vort_a_mean                  =   0.0000000000000E+00
(PID.TID 0000.0001) %MON vort_a_sd                    =   0.0000000000000E+00
(PID.TID 0000.0001) %MON vort_p_mean                  =   0.0000000000000E+00
(PID.TID 0000.0001) %MON vort_p_sd                    =   0.0000000000000E+00
(PID.TID 0000.0001) %MON surfExpan_theta_mean         =  -1.3342403559991E-13
(PID.TID 0000.0001) %MON surfExpan_salt_mean          =  -1.1523339349593E-18
(PID.TID 0000.0001) // =======================================================
(PID.TID 0000.0001) // End MONITOR dynamic field statistics
(PID.TID 0000.0001) // =======================================================
 cg2d: Sum(rhs),rhsMax =  -5.39143170957975E-14  7.09609659336128E-04
(PID.TID 0000.0001)                    cg2d_init_res =    8.71411188146463E-02
(PID.TID 0000.0001)                       cg2d_iters =    58
(PID.TID 0000.0001)                         cg2d_res =    2.52250958820566E-19
 cg2d: Sum(rhs),rhsMax =  -5.34866408433664E-14  6.72987932849705E-04
 cg2d: Sum(rhs),rhsMax =  -4.95280493050324E-14  6.50819959356339E-04
 cg2d: Sum(rhs),rhsMax =  -4.96477520011383E-14  6.02205319391122E-04
 cg2d: Sum(rhs),rhsMax =  -5.08616857398253E-14  5.70928815273523E-04
(PID.TID 0000.0001) // =======================================================
(PID.TID 0000.0001) // Begin MONITOR dynamic field statistics
(PID.TID 0000.0001) // =======================================================
(PID.TID 0000.0001) %MON time_tsnumber                =                    65
(PID.TID 0000.0001) %MON time_secondsf                =   3.2500000000000E+04
(PID.TID 0000.0001) %MON dynstat_eta_max              =   1.1530852465407E-04
(PID.TID 0000.0001) %MON dynstat_eta_min              =  -1.7121266900718E-04
(PID.TID 0000.0001) %MON dynstat_eta_mean             =   1.3678254382782E-16
(PID.TID 0000.0001) %MON dynstat_eta_sd               =   3.8590834616090E-05
(PID.TID 0000.0001) %MON dynstat_eta_del2             =   2.4376039081042E-06
(PID.TID 0000.0001) %MON dynstat_uvel_max             =   2.3020874304323E-02
(PID.TID 0000.0001) %MON dynstat_uvel_min             =  -2.3069945832883E-02
(PID.TID 0000.0001) %MON dynstat_uvel_mean            =   6.5816947507463E-08
(PID.TID 0000.0001) %MON dynstat_uvel_sd              =   6.6797157788495E-03
(PID.TID 0000.0001) %MON dynstat_uvel_del2            =   2.1398447684947E-04
(PID.TID 0000.0001) %MON dynstat_vvel_max             =   0.0000000000000E+00
(PID.TID 0000.0001) %MON dynstat_vvel_min             =   0.0000000000000E+00
(PID.TID 0000.0001) %MON dynstat_vvel_mean            =   0.0000000000000E+00
(PID.TID 0000.0001) %MON dynstat_vvel_sd              =   0.0000000000000E+00
(PID.TID 0000.0001) %MON dynstat_vvel_del2            =   0.0000000000000E+00
(PID.TID 0000.0001) %MON dynstat_wvel_max             =   3.1980608125118E-03
(PID.TID 0000.0001) %MON dynstat_wvel_min             =  -6.7494372846712E-03
(PID.TID 0000.0001) %MON dynstat_wvel_mean            =  -1.9951120369716E-20
(PID.TID 0000.0001) %MON dynstat_wvel_sd              =   1.2476691117831E-03
(PID.TID 0000.0001) %MON dynstat_wvel_del2            =   1.1384289687216E-04
(PID.TID 0000.0001) %MON dynstat_theta_max            =   4.7914085933823E-02
(PID.TID 0000.0001) %MON dynstat_theta_min            =  -4.9371590477079E-02
(PID.TID 0000.0001) %MON dynstat_theta_mean           =   1.4308527155379E-02
(PID.TID 0000.0001) %MON dynstat_theta_sd             =   2.7647761104280E-02
(PID.TID 0000.0001) %MON dynstat_theta_del2           =   1.2789265319819E-04
(PID.TID 0000.0001) %MON dynstat_salt_max             =   3.5000000000000E+01
(PID.TID 0000.0001) %MON dynstat_salt_min             =   0.0000000000000E+00
(PID.TID 0000.0001) %MON dynstat_salt_mean            =   3.3847052152665E+01
(PID.TID 0000.0001) %MON dynstat_salt_sd              =   6.2469101096520E+00
(PID.TID 0000.0001) %MON dynstat_salt_del2            =   5.6726094003241E-01
(PID.TID 0000.0001) %MON advcfl_uvel_max              =   5.2904763000221E-02
(PID.TID 0000.0001) %MON advcfl_vvel_max              =   0.0000000000000E+00
(PID.TID 0000.0001) %MON advcfl_wvel_max              =   3.3747186423356E-01
(PID.TID 0000.0001) %MON advcfl_W_hf_max              =   3.3747186423356E-01
(PID.TID 0000.0001) %MON pe_b_mean                    =   7.0985719513455E-11
(PID.TID 0000.0001) %MON ke_max                       =   2.3379853932194E-04
(PID.TID 0000.0001) %MON ke_mean                      =   2.1574402107636E-05
(PID.TID 0000.0001) %MON ke_vol                       =   6.6188141628594E+09
(PID.TID 0000.0001) %MON vort_r_min                   =   0.0000000000000E+00
(PID.TID 0000.0001) %MON vort_r_max                   =   0.0000000000000E+00
(PID.TID 0000.0001) %MON vort_a_mean                  =   0.0000000000000E+00
(PID.TID 0000.0001) %MON vort_a_sd                    =   0.0000000000000E+00
(PID.TID 0000.0001) %MON vort_p_mean                  =   0.0000000000000E+00
(PID.TID 0000.0001) %MON vort_p_sd                    =   0.0000000000000E+00
(PID.TID 0000.0001) %MON surfExpan_theta_mean         =   2.5579573601162E-15
(PID.TID 0000.0001) %MON surfExpan_salt_mean          =  -1.2543161176718E-19
(PID.TID 0000.0001) // =======================================================
(PID.TID 0000.0001) // End MONITOR dynamic field statistics
(PID.TID 0000.0001) // =======================================================
 cg2d: Sum(rhs),rhsMax =  -5.66123143914792E-14  5.10348417468645E-04
(PID.TID 0000.0001)                    cg2d_init_res =    1.94608442516555E-01
(PID.TID 0000.0001)                       cg2d_iters =    58
(PID.TID 0000.0001)                         cg2d_res =    1.32561896915700E-18
 cg2d: Sum(rhs),rhsMax =  -5.74158301740353E-14  4.70222276100832E-04
 cg2d: Sum(rhs),rhsMax =  -6.59238424483358E-14  3.98472411785980E-04
 cg2d: Sum(rhs),rhsMax =  -5.54410778895974E-14  3.50650414400981E-04
 cg2d: Sum(rhs),rhsMax =  -5.38813141510736E-14  3.34990612591421E-04
(PID.TID 0000.0001) // =======================================================
(PID.TID 0000.0001) // Begin MONITOR dynamic field statistics
(PID.TID 0000.0001) // =======================================================
(PID.TID 0000.0001) %MON time_tsnumber                =                    70
(PID.TID 0000.0001) %MON time_secondsf                =   3.5000000000000E+04
(PID.TID 0000.0001) %MON dynstat_eta_max              =   1.1739499057540E-04
(PID.TID 0000.0001) %MON dynstat_eta_min              =  -1.8216479624914E-04
(PID.TID 0000.0001) %MON dynstat_eta_mean             =   8.6331408453870E-17
(PID.TID 0000.0001) %MON dynstat_eta_sd               =   4.3415515645921E-05
(PID.TID 0000.0001) %MON dynstat_eta_del2             =   2.5300620404420E-06
(PID.TID 0000.0001) %MON dynstat_uvel_max             =   2.2725295005345E-02
(PID.TID 0000.0001) %MON dynstat_uvel_min             =  -2.2882648850336E-02
(PID.TID 0000.0001) %MON dynstat_uvel_mean            =   5.9584878595853E-08
(PID.TID 0000.0001) %MON dynstat_uvel_sd              =   7.1013122809144E-03
(PID.TID 0000.0001) %MON dynstat_uvel_del2            =   2.2030421082267E-04
(PID.TID 0000.0001) %MON dynstat_vvel_max             =   0.0000000000000E+00
(PID.TID 0000.0001) %MON dynstat_vvel_min             =   0.0000000000000E+00
(PID.TID 0000.0001) %MON dynstat_vvel_mean            =   0.0000000000000E+00
(PID.TID 0000.0001) %MON dynstat_vvel_sd              =   0.0000000000000E+00
(PID.TID 0000.0001) %MON dynstat_vvel_del2            =   0.0000000000000E+00
(PID.TID 0000.0001) %MON dynstat_wvel_max             =   3.3003880988612E-03
(PID.TID 0000.0001) %MON dynstat_wvel_min             =  -6.6401944142330E-03
(PID.TID 0000.0001) %MON dynstat_wvel_mean            =  -4.1210689813650E-20
(PID.TID 0000.0001) %MON dynstat_wvel_sd              =   1.2345782330293E-03
(PID.TID 0000.0001) %MON dynstat_wvel_del2            =   1.0100080041744E-04
(PID.TID 0000.0001) %MON dynstat_theta_max            =   4.7789441794749E-02
(PID.TID 0000.0001) %MON dynstat_theta_min            =  -4.9356188530100E-02
(PID.TID 0000.0001) %MON dynstat_theta_mean           =   1.4132902620351E-02
(PID.TID 0000.0001) %MON dynstat_theta_sd             =   2.7747325658452E-02
(PID.TID 0000.0001) %MON dynstat_theta_del2           =   1.2404787388642E-04
(PID.TID 0000.0001) %MON dynstat_salt_max             =   3.5000000000000E+01
(PID.TID 0000.0001) %MON dynstat_salt_min             =   0.0000000000000E+00
(PID.TID 0000.0001) %MON dynstat_salt_mean            =   3.3847052152665E+01
(PID.TID 0000.0001) %MON dynstat_salt_sd              =   6.2469101096520E+00
(PID.TID 0000.0001) %MON dynstat_salt_del2            =   5.6726094003241E-01
(PID.TID 0000.0001) %MON advcfl_uvel_max              =   5.2475247363553E-02
(PID.TID 0000.0001) %MON advcfl_vvel_max              =   0.0000000000000E+00
(PID.TID 0000.0001) %MON advcfl_wvel_max              =   3.3200972071165E-01
(PID.TID 0000.0001) %MON advcfl_W_hf_max              =   3.3200972071165E-01
(PID.TID 0000.0001) %MON pe_b_mean                    =   8.9844722809205E-11
(PID.TID 0000.0001) %MON ke_max                       =   2.5538831143169E-04
(PID.TID 0000.0001) %MON ke_mean                      =   2.4383723169164E-05
(PID.TID 0000.0001) %MON ke_vol                       =   6.6188141628594E+09
(PID.TID 0000.0001) %MON vort_r_min                   =   0.0000000000000E+00
(PID.TID 0000.0001) %MON vort_r_max                   =   0.0000000000000E+00
(PID.TID 0000.0001) %MON vort_a_mean                  =   0.0000000000000E+00
(PID.TID 0000.0001) %MON vort_a_sd                    =   0.0000000000000E+00
(PID.TID 0000.0001) %MON vort_p_mean                  =   0.0000000000000E+00
(PID.TID 0000.0001) %MON vort_p_sd                    =   0.0000000000000E+00
(PID.TID 0000.0001) %MON surfExpan_theta_mean         =  -3.1335485509197E-13
(PID.TID 0000.0001) %MON surfExpan_salt_mean          =  -1.4266010443352E-18
(PID.TID 0000.0001) // =======================================================
(PID.TID 0000.0001) // End MONITOR dynamic field statistics
(PID.TID 0000.0001) // =======================================================
 cg2d: Sum(rhs),rhsMax =  -4.29533118058087E-14  3.62758602506874E-04
(PID.TID 0000.0001)                    cg2d_init_res =    2.34478796968792E-01
(PID.TID 0000.0001)                       cg2d_iters =    58
(PID.TID 0000.0001)                         cg2d_res =    8.15424147802619E-19
 cg2d: Sum(rhs),rhsMax =  -3.86307468219077E-14  4.06813106562336E-04
 cg2d: Sum(rhs),rhsMax =  -2.92430671149611E-14  4.27720353709685E-04
 cg2d: Sum(rhs),rhsMax =  -1.93031354789319E-14  4.66863932048299E-04
 cg2d: Sum(rhs),rhsMax =  -2.26960851913531E-14  4.76632511658609E-04
(PID.TID 0000.0001) // =======================================================
(PID.TID 0000.0001) // Begin MONITOR dynamic field statistics
(PID.TID 0000.0001) // =======================================================
(PID.TID 0000.0001) %MON time_tsnumber                =                    75
(PID.TID 0000.0001) %MON time_secondsf                =   3.7500000000000E+04
(PID.TID 0000.0001) %MON dynstat_eta_max              =   1.1875198197928E-04
(PID.TID 0000.0001) %MON dynstat_eta_min              =  -1.7817375733118E-04
(PID.TID 0000.0001) %MON dynstat_eta_mean             =   4.5036497621520E-17
(PID.TID 0000.0001) %MON dynstat_eta_sd               =   4.6936835107721E-05
(PID.TID 0000.0001) %MON dynstat_eta_del2             =   2.4113383093974E-06
(PID.TID 0000.0001) %MON dynstat_uvel_max             =   2.2680636005868E-02
(PID.TID 0000.0001) %MON dynstat_uvel_min             =  -2.3291927407169E-02
(PID.TID 0000.0001) %MON dynstat_uvel_mean            =   7.6935006186734E-08
(PID.TID 0000.0001) %MON dynstat_uvel_sd              =   7.3678032686653E-03
(PID.TID 0000.0001) %MON dynstat_uvel_del2            =   2.5102498346999E-04
(PID.TID 0000.0001) %MON dynstat_vvel_max             =   0.0000000000000E+00
(PID.TID 0000.0001) %MON dynstat_vvel_min             =   0.0000000000000E+00
(PID.TID 0000.0001) %MON dynstat_vvel_mean            =   0.0000000000000E+00
(PID.TID 0000.0001) %MON dynstat_vvel_sd              =   0.0000000000000E+00
(PID.TID 0000.0001) %MON dynstat_vvel_del2            =   0.0000000000000E+00
(PID.TID 0000.0001) %MON dynstat_wvel_max             =   3.2449490980773E-03
(PID.TID 0000.0001) %MON dynstat_wvel_min             =  -5.7145699763620E-03
(PID.TID 0000.0001) %MON dynstat_wvel_mean            =  -3.1796408908658E-20
(PID.TID 0000.0001) %MON dynstat_wvel_sd              =   1.1585847443264E-03
(PID.TID 0000.0001) %MON dynstat_wvel_del2            =   7.6902593698843E-05
(PID.TID 0000.0001) %MON dynstat_theta_max            =   4.7676083494528E-02
(PID.TID 0000.0001) %MON dynstat_theta_min            =  -4.9225686480332E-02
(PID.TID 0000.0001) %MON dynstat_theta_mean           =   1.4002119319639E-02
(PID.TID 0000.0001) %MON dynstat_theta_sd             =   2.7810302706416E-02
(PID.TID 0000.0001) %MON dynstat_theta_del2           =   1.3428457255591E-04
(PID.TID 0000.0001) %MON dynstat_salt_max             =   3.5000000000000E+01
(PID.TID 0000.0001) %MON dynstat_salt_min             =   0.0000000000000E+00
(PID.TID 0000.0001) %MON dynstat_salt_mean            =   3.3847052152665E+01
(PID.TID 0000.0001) %MON dynstat_salt_sd              =   6.2469101096520E+00
(PID.TID 0000.0001) %MON dynstat_salt_del2            =   5.6726094003241E-01
(PID.TID 0000.0001) %MON advcfl_uvel_max              =   5.3413818490124E-02
(PID.TID 0000.0001) %MON advcfl_vvel_max              =   0.0000000000000E+00
(PID.TID 0000.0001) %MON advcfl_wvel_max              =   2.8572849881810E-01
(PID.TID 0000.0001) %MON advcfl_W_hf_max              =   2.8572849881810E-01
(PID.TID 0000.0001) %MON pe_b_mean                    =   1.0500990141362E-10
(PID.TID 0000.0001) %MON ke_max                       =   2.4136646875301E-04
(PID.TID 0000.0001) %MON ke_mean                      =   2.6248158581095E-05
(PID.TID 0000.0001) %MON ke_vol                       =   6.6188141628594E+09
(PID.TID 0000.0001) %MON vort_r_min                   =   0.0000000000000E+00
(PID.TID 0000.0001) %MON vort_r_max                   =   0.0000000000000E+00
(PID.TID 0000.0001) %MON vort_a_mean                  =   0.0000000000000E+00
(PID.TID 0000.0001) %MON vort_a_sd                    =   0.0000000000000E+00
(PID.TID 0000.0001) %MON vort_p_mean                  =   0.0000000000000E+00
(PID.TID 0000.0001) %MON vort_p_sd                    =   0.0000000000000E+00
(PID.TID 0000.0001) %MON surfExpan_theta_mean         =  -1.2400584492114E-12
(PID.TID 0000.0001) %MON surfExpan_salt_mean          =  -9.7376101462219E-19
(PID.TID 0000.0001) // =======================================================
(PID.TID 0000.0001) // End MONITOR dynamic field statistics
(PID.TID 0000.0001) // =======================================================
 cg2d: Sum(rhs),rhsMax =  -1.14904559391643E-14  5.06784550723631E-04
(PID.TID 0000.0001)                    cg2d_init_res =    2.33329507807945E-01
(PID.TID 0000.0001)                       cg2d_iters =    58
(PID.TID 0000.0001)                         cg2d_res =    2.06865136473829E-18
 cg2d: Sum(rhs),rhsMax =  -6.11723806375267E-15  5.01936332743348E-04
 cg2d: Sum(rhs),rhsMax =  -1.02847689132518E-14  5.20270793597079E-04
 cg2d: Sum(rhs),rhsMax =  -3.54382322098612E-15  4.99044449829436E-04
 cg2d: Sum(rhs),rhsMax =   2.75800703889578E-15  5.04705343809688E-04
(PID.TID 0000.0001) // =======================================================
(PID.TID 0000.0001) // Begin MONITOR dynamic field statistics
(PID.TID 0000.0001) // =======================================================
(PID.TID 0000.0001) %MON time_tsnumber                =                    80
(PID.TID 0000.0001) %MON time_secondsf                =   4.0000000000000E+04
(PID.TID 0000.0001) %MON dynstat_eta_max              =   1.1693698504589E-04
(PID.TID 0000.0001) %MON dynstat_eta_min              =  -1.7877633126971E-04
(PID.TID 0000.0001) %MON dynstat_eta_mean             =   2.0574653499119E-19
(PID.TID 0000.0001) %MON dynstat_eta_sd               =   4.9129140238769E-05
(PID.TID 0000.0001) %MON dynstat_eta_del2             =   2.1104778865982E-06
(PID.TID 0000.0001) %MON dynstat_uvel_max             =   2.2518795612160E-02
(PID.TID 0000.0001) %MON dynstat_uvel_min             =  -2.2779025688593E-02
(PID.TID 0000.0001) %MON dynstat_uvel_mean            =   3.5223871675667E-08
(PID.TID 0000.0001) %MON dynstat_uvel_sd              =   7.4633976768210E-03
(PID.TID 0000.0001) %MON dynstat_uvel_del2            =   2.8015646153342E-04
(PID.TID 0000.0001) %MON dynstat_vvel_max             =   0.0000000000000E+00
(PID.TID 0000.0001) %MON dynstat_vvel_min             =   0.0000000000000E+00
(PID.TID 0000.0001) %MON dynstat_vvel_mean            =   0.0000000000000E+00
(PID.TID 0000.0001) %MON dynstat_vvel_sd              =   0.0000000000000E+00
(PID.TID 0000.0001) %MON dynstat_vvel_del2            =   0.0000000000000E+00
(PID.TID 0000.0001) %MON dynstat_wvel_max             =   3.1124952379230E-03
(PID.TID 0000.0001) %MON dynstat_wvel_min             =  -4.0863652669698E-03
(PID.TID 0000.0001) %MON dynstat_wvel_mean            =   6.4156812108426E-20
(PID.TID 0000.0001) %MON dynstat_wvel_sd              =   1.0611346006997E-03
(PID.TID 0000.0001) %MON dynstat_wvel_del2            =   5.4350811794566E-05
(PID.TID 0000.0001) %MON dynstat_theta_max            =   4.7843871041406E-02
(PID.TID 0000.0001) %MON dynstat_theta_min            =  -4.8996128958594E-02
(PID.TID 0000.0001) %MON dynstat_theta_mean           =   1.3932309122248E-02
(PID.TID 0000.0001) %MON dynstat_theta_sd             =   2.7829074682319E-02
(PID.TID 0000.0001) %MON dynstat_theta_del2           =   1.5314800246383E-04
(PID.TID 0000.0001) %MON dynstat_salt_max             =   3.5000000000000E+01
(PID.TID 0000.0001) %MON dynstat_salt_min             =   0.0000000000000E+00
(PID.TID 0000.0001) %MON dynstat_salt_mean            =   3.3847052152665E+01
(PID.TID 0000.0001) %MON dynstat_salt_sd              =   6.2469101096520E+00
(PID.TID 0000.0001) %MON dynstat_salt_del2            =   5.6726094003241E-01
(PID.TID 0000.0001) %MON advcfl_uvel_max              =   5.2237615300908E-02
(PID.TID 0000.0001) %MON advcfl_vvel_max              =   0.0000000000000E+00
(PID.TID 0000.0001) %MON advcfl_wvel_max              =   2.0431826334849E-01
(PID.TID 0000.0001) %MON advcfl_W_hf_max              =   2.0431826334849E-01
(PID.TID 0000.0001) %MON pe_b_mean                    =   1.1504850357020E-10
(PID.TID 0000.0001) %MON ke_max                       =   2.3869593430145E-04
(PID.TID 0000.0001) %MON ke_mean                      =   2.6933696351373E-05
(PID.TID 0000.0001) %MON ke_vol                       =   6.6188141628594E+09
(PID.TID 0000.0001) %MON vort_r_min                   =   0.0000000000000E+00
(PID.TID 0000.0001) %MON vort_r_max                   =   0.0000000000000E+00
(PID.TID 0000.0001) %MON vort_a_mean                  =   0.0000000000000E+00
(PID.TID 0000.0001) %MON vort_a_sd                    =   0.0000000000000E+00
(PID.TID 0000.0001) %MON vort_p_mean                  =   0.0000000000000E+00
(PID.TID 0000.0001) %MON vort_p_sd                    =   0.0000000000000E+00
(PID.TID 0000.0001) %MON surfExpan_theta_mean         =   1.2426006591225E-12
(PID.TID 0000.0001) %MON surfExpan_salt_mean          =   7.0032730215608E-19
(PID.TID 0000.0001) // =======================================================
(PID.TID 0000.0001) // End MONITOR dynamic field statistics
(PID.TID 0000.0001) // =======================================================
 cg2d: Sum(rhs),rhsMax =   8.47369388740950E-15  4.67477621234522E-04
(PID.TID 0000.0001)                    cg2d_init_res =    1.86457358735029E-01
(PID.TID 0000.0001)                       cg2d_iters =    58
(PID.TID 0000.0001)                         cg2d_res =    1.38758113920106E-18
 cg2d: Sum(rhs),rhsMax =   4.45088031101465E-15  5.26549831472155E-04
 cg2d: Sum(rhs),rhsMax =   1.20702872610096E-15  5.48952002106254E-04
 cg2d: Sum(rhs),rhsMax =   4.51731479913370E-15  6.09130668993792E-04
 cg2d: Sum(rhs),rhsMax =   1.22277676265631E-14  6.19938494758575E-04
(PID.TID 0000.0001) // =======================================================
(PID.TID 0000.0001) // Begin MONITOR dynamic field statistics
(PID.TID 0000.0001) // =======================================================
(PID.TID 0000.0001) %MON time_tsnumber                =                    85
(PID.TID 0000.0001) %MON time_secondsf                =   4.2500000000000E+04
(PID.TID 0000.0001) %MON dynstat_eta_max              =   1.1377643819570E-04
(PID.TID 0000.0001) %MON dynstat_eta_min              =  -1.8196568193609E-04
(PID.TID 0000.0001) %MON dynstat_eta_mean             =  -1.7396940145456E-17
(PID.TID 0000.0001) %MON dynstat_eta_sd               =   5.0063311920461E-05
(PID.TID 0000.0001) %MON dynstat_eta_del2             =   1.7283517415318E-06
(PID.TID 0000.0001) %MON dynstat_uvel_max             =   2.2366982447329E-02
(PID.TID 0000.0001) %MON dynstat_uvel_min             =  -2.2105063347779E-02
(PID.TID 0000.0001) %MON dynstat_uvel_mean            =   3.6300491404701E-08
(PID.TID 0000.0001) %MON dynstat_uvel_sd              =   7.4384117192829E-03
(PID.TID 0000.0001) %MON dynstat_uvel_del2            =   3.1116835145283E-04
(PID.TID 0000.0001) %MON dynstat_vvel_max             =   0.0000000000000E+00
(PID.TID 0000.0001) %MON dynstat_vvel_min             =   0.0000000000000E+00
(PID.TID 0000.0001) %MON dynstat_vvel_mean            =   0.0000000000000E+00
(PID.TID 0000.0001) %MON dynstat_vvel_sd              =   0.0000000000000E+00
(PID.TID 0000.0001) %MON dynstat_vvel_del2            =   0.0000000000000E+00
(PID.TID 0000.0001) %MON dynstat_wvel_max             =   3.1788606885599E-03
(PID.TID 0000.0001) %MON dynstat_wvel_min             =  -2.7811975226174E-03
(PID.TID 0000.0001) %MON dynstat_wvel_mean            =  -1.9085042616822E-20
(PID.TID 0000.0001) %MON dynstat_wvel_sd              =   1.0023917233867E-03
(PID.TID 0000.0001) %MON dynstat_wvel_del2            =   5.7903922578210E-05
(PID.TID 0000.0001) %MON dynstat_theta_max            =   4.8144260986551E-02
(PID.TID 0000.0001) %MON dynstat_theta_min            =  -4.8695739013449E-02
(PID.TID 0000.0001) %MON dynstat_theta_mean           =   1.3932292023853E-02
(PID.TID 0000.0001) %MON dynstat_theta_sd             =   2.7805576514456E-02
(PID.TID 0000.0001) %MON dynstat_theta_del2           =   1.6715170339991E-04
(PID.TID 0000.0001) %MON dynstat_salt_max             =   3.5000000000000E+01
(PID.TID 0000.0001) %MON dynstat_salt_min             =   0.0000000000000E+00
(PID.TID 0000.0001) %MON dynstat_salt_mean            =   3.3847052152665E+01
(PID.TID 0000.0001) %MON dynstat_salt_sd              =   6.2469101096520E+00
(PID.TID 0000.0001) %MON dynstat_salt_del2            =   5.6726094003241E-01
(PID.TID 0000.0001) %MON advcfl_uvel_max              =   5.1292704108537E-02
(PID.TID 0000.0001) %MON advcfl_vvel_max              =   0.0000000000000E+00
(PID.TID 0000.0001) %MON advcfl_wvel_max              =   1.5894303442800E-01
(PID.TID 0000.0001) %MON advcfl_W_hf_max              =   1.5894303442800E-01
(PID.TID 0000.0001) %MON pe_b_mean                    =   1.1946530597753E-10
(PID.TID 0000.0001) %MON ke_max                       =   2.4190377800524E-04
(PID.TID 0000.0001) %MON ke_mean                      =   2.6753661005669E-05
(PID.TID 0000.0001) %MON ke_vol                       =   6.6188141628594E+09
(PID.TID 0000.0001) %MON vort_r_min                   =   0.0000000000000E+00
(PID.TID 0000.0001) %MON vort_r_max                   =   0.0000000000000E+00
(PID.TID 0000.0001) %MON vort_a_mean                  =   0.0000000000000E+00
(PID.TID 0000.0001) %MON vort_a_sd                    =   0.0000000000000E+00
(PID.TID 0000.0001) %MON vort_p_mean                  =   0.0000000000000E+00
(PID.TID 0000.0001) %MON vort_p_sd                    =   0.0000000000000E+00
(PID.TID 0000.0001) %MON surfExpan_theta_mean         =  -2.9182476470739E-12
(PID.TID 0000.0001) %MON surfExpan_salt_mean          =  -6.5816203510530E-19
(PID.TID 0000.0001) // =======================================================
(PID.TID 0000.0001) // End MONITOR dynamic field statistics
(PID.TID 0000.0001) // =======================================================
 cg2d: Sum(rhs),rhsMax =   1.40957124444840E-15  6.69753552714618E-04
(PID.TID 0000.0001)                    cg2d_init_res =    1.20823389908076E-01
(PID.TID 0000.0001)                       cg2d_iters =    58
(PID.TID 0000.0001)                         cg2d_res =    2.01037744476671E-19
 cg2d: Sum(rhs),rhsMax =   4.78477392255872E-15  6.69154385757592E-04
 cg2d: Sum(rhs),rhsMax =   5.85251655081317E-15  7.08885103043103E-04
 cg2d: Sum(rhs),rhsMax =   2.85662877901049E-15  6.97539124211521E-04
 cg2d: Sum(rhs),rhsMax =   7.67176713866238E-15  7.27852790423199E-04
(PID.TID 0000.0001) // =======================================================
(PID.TID 0000.0001) // Begin MONITOR dynamic field statistics
(PID.TID 0000.0001) // =======================================================
(PID.TID 0000.0001) %MON time_tsnumber                =                    90
(PID.TID 0000.0001) %MON time_secondsf                =   4.5000000000000E+04
(PID.TID 0000.0001) %MON dynstat_eta_max              =   1.1385299429845E-04
(PID.TID 0000.0001) %MON dynstat_eta_min              =  -1.8326362708134E-04
(PID.TID 0000.0001) %MON dynstat_eta_mean             =  -2.0700431830167E-17
(PID.TID 0000.0001) %MON dynstat_eta_sd               =   5.0529469969155E-05
(PID.TID 0000.0001) %MON dynstat_eta_del2             =   1.5747893939270E-06
(PID.TID 0000.0001) %MON dynstat_uvel_max             =   2.2282617892255E-02
(PID.TID 0000.0001) %MON dynstat_uvel_min             =  -2.2953179827868E-02
(PID.TID 0000.0001) %MON dynstat_uvel_mean            =   8.6397939637392E-09
(PID.TID 0000.0001) %MON dynstat_uvel_sd              =   7.3940064732785E-03
(PID.TID 0000.0001) %MON dynstat_uvel_del2            =   3.2815798473164E-04
(PID.TID 0000.0001) %MON dynstat_vvel_max             =   0.0000000000000E+00
(PID.TID 0000.0001) %MON dynstat_vvel_min             =   0.0000000000000E+00
(PID.TID 0000.0001) %MON dynstat_vvel_mean            =   0.0000000000000E+00
(PID.TID 0000.0001) %MON dynstat_vvel_sd              =   0.0000000000000E+00
(PID.TID 0000.0001) %MON dynstat_vvel_del2            =   0.0000000000000E+00
(PID.TID 0000.0001) %MON dynstat_wvel_max             =   3.1236067007237E-03
(PID.TID 0000.0001) %MON dynstat_wvel_min             =  -3.1849325914473E-03
(PID.TID 0000.0001) %MON dynstat_wvel_mean            =  -2.4224574069978E-20
(PID.TID 0000.0001) %MON dynstat_wvel_sd              =   1.0312210408857E-03
(PID.TID 0000.0001) %MON dynstat_wvel_del2            =   8.5346864233739E-05
(PID.TID 0000.0001) %MON dynstat_theta_max            =   4.8478551783684E-02
(PID.TID 0000.0001) %MON dynstat_theta_min            =  -4.8361448216316E-02
(PID.TID 0000.0001) %MON dynstat_theta_mean           =   1.4002226280080E-02
(PID.TID 0000.0001) %MON dynstat_theta_sd             =   2.7748920874554E-02
(PID.TID 0000.0001) %MON dynstat_theta_del2           =   1.7807442772534E-04
(PID.TID 0000.0001) %MON dynstat_salt_max             =   3.5000000000000E+01
(PID.TID 0000.0001) %MON dynstat_salt_min             =   0.0000000000000E+00
(PID.TID 0000.0001) %MON dynstat_salt_mean            =   3.3847052152665E+01
(PID.TID 0000.0001) %MON dynstat_salt_sd              =   6.2469101096520E+00
(PID.TID 0000.0001) %MON dynstat_salt_del2            =   5.6726094003241E-01
(PID.TID 0000.0001) %MON advcfl_uvel_max              =   5.2636991334583E-02
(PID.TID 0000.0001) %MON advcfl_vvel_max              =   0.0000000000000E+00
(PID.TID 0000.0001) %MON advcfl_wvel_max              =   1.5924662957236E-01
(PID.TID 0000.0001) %MON advcfl_W_hf_max              =   1.5924662957236E-01
(PID.TID 0000.0001) %MON pe_b_mean                    =   1.2170043527905E-10
(PID.TID 0000.0001) %MON ke_max                       =   2.4118870525509E-04
(PID.TID 0000.0001) %MON ke_mean                      =   2.6435190496649E-05
(PID.TID 0000.0001) %MON ke_vol                       =   6.6188141628594E+09
(PID.TID 0000.0001) %MON vort_r_min                   =   0.0000000000000E+00
(PID.TID 0000.0001) %MON vort_r_max                   =   0.0000000000000E+00
(PID.TID 0000.0001) %MON vort_a_mean                  =   0.0000000000000E+00
(PID.TID 0000.0001) %MON vort_a_sd                    =   0.0000000000000E+00
(PID.TID 0000.0001) %MON vort_p_mean                  =   0.0000000000000E+00
(PID.TID 0000.0001) %MON vort_p_sd                    =   0.0000000000000E+00
(PID.TID 0000.0001) %MON surfExpan_theta_mean         =   1.7399469053693E-12
(PID.TID 0000.0001) %MON surfExpan_salt_mean          =  -9.7610236911328E-19
(PID.TID 0000.0001) // =======================================================
(PID.TID 0000.0001) // End MONITOR dynamic field statistics
(PID.TID 0000.0001) // =======================================================
 cg2d: Sum(rhs),rhsMax =   6.99993448621816E-15  7.06721955325285E-04
(PID.TID 0000.0001)                    cg2d_init_res =    1.49729259637328E-01
(PID.TID 0000.0001)                       cg2d_iters =    58
(PID.TID 0000.0001)                         cg2d_res =    1.35275398213965E-19
 cg2d: Sum(rhs),rhsMax =   3.19755954028035E-15  7.28499858391991E-04
 cg2d: Sum(rhs),rhsMax =  -1.32162889573267E-15  6.98714133623348E-04
 cg2d: Sum(rhs),rhsMax =   5.27653584074615E-15  7.12965035356622E-04
 cg2d: Sum(rhs),rhsMax =   5.58055121210876E-15  6.75746735868023E-04
(PID.TID 0000.0001) // =======================================================
(PID.TID 0000.0001) // Begin MONITOR dynamic field statistics
(PID.TID 0000.0001) // =======================================================
(PID.TID 0000.0001) %MON time_tsnumber                =                    95
(PID.TID 0000.0001) %MON time_secondsf                =   4.7500000000000E+04
(PID.TID 0000.0001) %MON dynstat_eta_max              =   1.1103064097867E-04
(PID.TID 0000.0001) %MON dynstat_eta_min              =  -1.8268911539332E-04
(PID.TID 0000.0001) %MON dynstat_eta_mean             =  -1.1184139180915E-17
(PID.TID 0000.0001) %MON dynstat_eta_sd               =   5.1094388900228E-05
(PID.TID 0000.0001) %MON dynstat_eta_del2             =   1.6462705937245E-06
(PID.TID 0000.0001) %MON dynstat_uvel_max             =   2.2263519121247E-02
(PID.TID 0000.0001) %MON dynstat_uvel_min             =  -2.4165063849047E-02
(PID.TID 0000.0001) %MON dynstat_uvel_mean            =   9.1724179342784E-09
(PID.TID 0000.0001) %MON dynstat_uvel_sd              =   7.4447162969103E-03
(PID.TID 0000.0001) %MON dynstat_uvel_del2            =   3.3150358107163E-04
(PID.TID 0000.0001) %MON dynstat_vvel_max             =   0.0000000000000E+00
(PID.TID 0000.0001) %MON dynstat_vvel_min             =   0.0000000000000E+00
(PID.TID 0000.0001) %MON dynstat_vvel_mean            =   0.0000000000000E+00
(PID.TID 0000.0001) %MON dynstat_vvel_sd              =   0.0000000000000E+00
(PID.TID 0000.0001) %MON dynstat_vvel_del2            =   0.0000000000000E+00
(PID.TID 0000.0001) %MON dynstat_wvel_max             =   3.0345269839576E-03
(PID.TID 0000.0001) %MON dynstat_wvel_min             =  -3.2054272155914E-03
(PID.TID 0000.0001) %MON dynstat_wvel_mean            =   1.2271902827727E-20
(PID.TID 0000.0001) %MON dynstat_wvel_sd              =   1.1410839629086E-03
(PID.TID 0000.0001) %MON dynstat_wvel_del2            =   1.1067822780892E-04
(PID.TID 0000.0001) %MON dynstat_theta_max            =   4.8805643906507E-02
(PID.TID 0000.0001) %MON dynstat_theta_min            =  -4.8034356093493E-02
(PID.TID 0000.0001) %MON dynstat_theta_mean           =   1.4133418250141E-02
(PID.TID 0000.0001) %MON dynstat_theta_sd             =   2.7671204095153E-02
(PID.TID 0000.0001) %MON dynstat_theta_del2           =   1.8860853916718E-04
(PID.TID 0000.0001) %MON dynstat_salt_max             =   3.5000000000000E+01
(PID.TID 0000.0001) %MON dynstat_salt_min             =   0.0000000000000E+00
(PID.TID 0000.0001) %MON dynstat_salt_mean            =   3.3847052152665E+01
(PID.TID 0000.0001) %MON dynstat_salt_sd              =   6.2469101096520E+00
(PID.TID 0000.0001) %MON dynstat_salt_del2            =   5.6726094003241E-01
(PID.TID 0000.0001) %MON advcfl_uvel_max              =   5.5416123864355E-02
(PID.TID 0000.0001) %MON advcfl_vvel_max              =   0.0000000000000E+00
(PID.TID 0000.0001) %MON advcfl_wvel_max              =   1.6027136077957E-01
(PID.TID 0000.0001) %MON advcfl_W_hf_max              =   1.6027136077957E-01
(PID.TID 0000.0001) %MON pe_b_mean                    =   1.2443686599561E-10
(PID.TID 0000.0001) %MON ke_max                       =   2.8272352237136E-04
(PID.TID 0000.0001) %MON ke_mean                      =   2.6799031004279E-05
(PID.TID 0000.0001) %MON ke_vol                       =   6.6188141628594E+09
(PID.TID 0000.0001) %MON vort_r_min                   =   0.0000000000000E+00
(PID.TID 0000.0001) %MON vort_r_max                   =   0.0000000000000E+00
(PID.TID 0000.0001) %MON vort_a_mean                  =   0.0000000000000E+00
(PID.TID 0000.0001) %MON vort_a_sd                    =   0.0000000000000E+00
(PID.TID 0000.0001) %MON vort_p_mean                  =   0.0000000000000E+00
(PID.TID 0000.0001) %MON vort_p_sd                    =   0.0000000000000E+00
(PID.TID 0000.0001) %MON surfExpan_theta_mean         =  -1.6996637345249E-12
(PID.TID 0000.0001) %MON surfExpan_salt_mean          =   5.0203566645053E-19
(PID.TID 0000.0001) // =======================================================
(PID.TID 0000.0001) // End MONITOR dynamic field statistics
(PID.TID 0000.0001) // =======================================================
 cg2d: Sum(rhs),rhsMax =   3.97359418589580E-15  6.83555675205775E-04
(PID.TID 0000.0001)                    cg2d_init_res =    1.11899932448213E-01
(PID.TID 0000.0001)                       cg2d_iters =    58
(PID.TID 0000.0001)                         cg2d_res =    1.17548096289146E-19
 cg2d: Sum(rhs),rhsMax =   8.02378047901411E-15  6.40200554674292E-04
 cg2d: Sum(rhs),rhsMax =   1.07287429266210E-14  6.42718766511114E-04
 cg2d: Sum(rhs),rhsMax =   1.58508731314122E-14  5.94567039344856E-04
 cg2d: Sum(rhs),rhsMax =   8.94901828422251E-15  5.93006504916904E-04
(PID.TID 0000.0001) // =======================================================
(PID.TID 0000.0001) // Begin MONITOR dynamic field statistics
(PID.TID 0000.0001) // =======================================================
(PID.TID 0000.0001) %MON time_tsnumber                =                   100
(PID.TID 0000.0001) %MON time_secondsf                =   5.0000000000000E+04
(PID.TID 0000.0001) %MON dynstat_eta_max              =   1.0459056776187E-04
(PID.TID 0000.0001) %MON dynstat_eta_min              =  -1.8947746159048E-04
(PID.TID 0000.0001) %MON dynstat_eta_mean             =  -1.9321197094351E-17
(PID.TID 0000.0001) %MON dynstat_eta_sd               =   5.1636659228960E-05
(PID.TID 0000.0001) %MON dynstat_eta_del2             =   1.9786477578375E-06
(PID.TID 0000.0001) %MON dynstat_uvel_max             =   2.1913427972175E-02
(PID.TID 0000.0001) %MON dynstat_uvel_min             =  -2.7314510736345E-02
(PID.TID 0000.0001) %MON dynstat_uvel_mean            =  -9.0226732800125E-09
(PID.TID 0000.0001) %MON dynstat_uvel_sd              =   7.6601056343396E-03
(PID.TID 0000.0001) %MON dynstat_uvel_del2            =   3.3602321183535E-04
(PID.TID 0000.0001) %MON dynstat_vvel_max             =   0.0000000000000E+00
(PID.TID 0000.0001) %MON dynstat_vvel_min             =   0.0000000000000E+00
(PID.TID 0000.0001) %MON dynstat_vvel_mean            =   0.0000000000000E+00
(PID.TID 0000.0001) %MON dynstat_vvel_sd              =   0.0000000000000E+00
(PID.TID 0000.0001) %MON dynstat_vvel_del2            =   0.0000000000000E+00
(PID.TID 0000.0001) %MON dynstat_wvel_max             =   4.7189995197283E-03
(PID.TID 0000.0001) %MON dynstat_wvel_min             =  -3.2371964629248E-03
(PID.TID 0000.0001) %MON dynstat_wvel_mean            =   1.3454529656984E-20
(PID.TID 0000.0001) %MON dynstat_wvel_sd              =   1.2791650025327E-03
(PID.TID 0000.0001) %MON dynstat_wvel_del2            =   1.2939743062468E-04
(PID.TID 0000.0001) %MON dynstat_theta_max            =   4.9085322872843E-02
(PID.TID 0000.0001) %MON dynstat_theta_min            =  -4.7754677127157E-02
(PID.TID 0000.0001) %MON dynstat_theta_mean           =   1.4309462769278E-02
(PID.TID 0000.0001) %MON dynstat_theta_sd             =   2.7583333826495E-02
(PID.TID 0000.0001) %MON dynstat_theta_del2           =   1.9066248188514E-04
(PID.TID 0000.0001) %MON dynstat_salt_max             =   3.5000000000000E+01
(PID.TID 0000.0001) %MON dynstat_salt_min             =   0.0000000000000E+00
(PID.TID 0000.0001) %MON dynstat_salt_mean            =   3.3847052152665E+01
(PID.TID 0000.0001) %MON dynstat_salt_sd              =   6.2469101096520E+00
(PID.TID 0000.0001) %MON dynstat_salt_del2            =   5.6726094003241E-01
(PID.TID 0000.0001) %MON advcfl_uvel_max              =   6.2638539658535E-02
(PID.TID 0000.0001) %MON advcfl_vvel_max              =   0.0000000000000E+00
(PID.TID 0000.0001) %MON advcfl_wvel_max              =   2.3594997598641E-01
(PID.TID 0000.0001) %MON advcfl_W_hf_max              =   2.3594997598641E-01
(PID.TID 0000.0001) %MON pe_b_mean                    =   1.2709220641992E-10
(PID.TID 0000.0001) %MON ke_max                       =   2.8794362280809E-04
(PID.TID 0000.0001) %MON ke_mean                      =   2.8372153503842E-05
(PID.TID 0000.0001) %MON ke_vol                       =   6.6188141628594E+09
(PID.TID 0000.0001) %MON vort_r_min                   =   0.0000000000000E+00
(PID.TID 0000.0001) %MON vort_r_max                   =   0.0000000000000E+00
(PID.TID 0000.0001) %MON vort_a_mean                  =   0.0000000000000E+00
(PID.TID 0000.0001) %MON vort_a_sd                    =   0.0000000000000E+00
(PID.TID 0000.0001) %MON vort_p_mean                  =   0.0000000000000E+00
(PID.TID 0000.0001) %MON vort_p_sd                    =   0.0000000000000E+00
(PID.TID 0000.0001) %MON surfExpan_theta_mean         =  -1.7117880198639E-13
(PID.TID 0000.0001) %MON surfExpan_salt_mean          =   1.4869205035189E-18
(PID.TID 0000.0001) // =======================================================
(PID.TID 0000.0001) // End MONITOR dynamic field statistics
(PID.TID 0000.0001) // =======================================================
(PID.TID 0000.0001) %CHECKPOINT       100 ckptA
(PID.TID 0000.0001)   Seconds in section "ALL                    [THE_MODEL_MAIN]":
(PID.TID 0000.0001)           User time:  1.04999995
(PID.TID 0000.0001)         System time:  0.0399999991
(PID.TID 0000.0001)     Wall clock time:  1.21810699
(PID.TID 0000.0001)          No. starts: 1
(PID.TID 0000.0001)           No. stops: 1
(PID.TID 0000.0001)   Seconds in section "INITIALISE_FIXED       [THE_MODEL_MAIN]":
(PID.TID 0000.0001)           User time:  0.0199999996
(PID.TID 0000.0001)         System time:  0.00999999978
(PID.TID 0000.0001)     Wall clock time:  0.060904026
(PID.TID 0000.0001)          No. starts: 1
(PID.TID 0000.0001)           No. stops: 1
(PID.TID 0000.0001)   Seconds in section "THE_MAIN_LOOP          [THE_MODEL_MAIN]":
(PID.TID 0000.0001)           User time:  1.02999995
(PID.TID 0000.0001)         System time:  0.0199999996
(PID.TID 0000.0001)     Wall clock time:  1.10822904
(PID.TID 0000.0001)          No. starts: 1
(PID.TID 0000.0001)           No. stops: 1
(PID.TID 0000.0001)   Seconds in section "INITIALISE_VARIA    [THE_MAIN_LOOP]":
(PID.TID 0000.0001)           User time:  0.
(PID.TID 0000.0001)         System time:  0.
(PID.TID 0000.0001)     Wall clock time:  0.00577890873
(PID.TID 0000.0001)          No. starts: 1
(PID.TID 0000.0001)           No. stops: 1
(PID.TID 0000.0001)   Seconds in section "WRITE_STATE         [THE_MAIN_LOOP]":
(PID.TID 0000.0001)           User time:  0.00999999978
(PID.TID 0000.0001)         System time:  0.00999999978
(PID.TID 0000.0001)     Wall clock time:  0.0326080322
(PID.TID 0000.0001)          No. starts: 1
(PID.TID 0000.0001)           No. stops: 1
(PID.TID 0000.0001)   Seconds in section "MONITOR             [THE_MAIN_LOOP]":
(PID.TID 0000.0001)           User time:  0.
(PID.TID 0000.0001)         System time:  0.
(PID.TID 0000.0001)     Wall clock time:  0.00165498257
(PID.TID 0000.0001)          No. starts: 1
(PID.TID 0000.0001)           No. stops: 1
(PID.TID 0000.0001)   Seconds in section "MAIN LOOP           [THE_MAIN_LOOP]":
(PID.TID 0000.0001)           User time:  1.01999995
(PID.TID 0000.0001)         System time:  0.00999999978
(PID.TID 0000.0001)     Wall clock time:  1.0680809
(PID.TID 0000.0001)          No. starts: 1
(PID.TID 0000.0001)           No. stops: 1
(PID.TID 0000.0001)   Seconds in section "FORWARD_STEP        [THE_MAIN_LOOP]":
(PID.TID 0000.0001)           User time:  1.00999996
(PID.TID 0000.0001)         System time:  0.00999999978
(PID.TID 0000.0001)     Wall clock time:  1.06601191
(PID.TID 0000.0001)          No. starts: 100
(PID.TID 0000.0001)           No. stops: 100
(PID.TID 0000.0001)   Seconds in section "UPDATE_ETAH        [FORWARD_STEP]":
(PID.TID 0000.0001)           User time:  0.0199999958
(PID.TID 0000.0001)         System time:  0.
(PID.TID 0000.0001)     Wall clock time:  0.0034635067
(PID.TID 0000.0001)          No. starts: 100
(PID.TID 0000.0001)           No. stops: 100
(PID.TID 0000.0001)   Seconds in section "CALC_SURF_DR      [FORWARD_STEP]":
(PID.TID 0000.0001)           User time:  0.0100000054
(PID.TID 0000.0001)         System time:  0.
(PID.TID 0000.0001)     Wall clock time:  0.00884950161
(PID.TID 0000.0001)          No. starts: 100
(PID.TID 0000.0001)           No. stops: 100
(PID.TID 0000.0001)   Seconds in section "EXTERNAL_FIELDS_LOAD[FORWARD_STEP]":
(PID.TID 0000.0001)           User time:  0.
(PID.TID 0000.0001)         System time:  0.
(PID.TID 0000.0001)     Wall clock time:  0.00195837021
(PID.TID 0000.0001)          No. starts: 100
(PID.TID 0000.0001)           No. stops: 100
(PID.TID 0000.0001)   Seconds in section "THERMODYNAMICS      [FORWARD_STEP]":
(PID.TID 0000.0001)           User time:  0.209999979
(PID.TID 0000.0001)         System time:  0.
(PID.TID 0000.0001)     Wall clock time:  0.254725933
(PID.TID 0000.0001)          No. starts: 100
(PID.TID 0000.0001)           No. stops: 100
(PID.TID 0000.0001)   Seconds in section "BLOCKING_EXCHANGES  [FORWARD_STEP]":
(PID.TID 0000.0001)           User time:  0.0799999237
(PID.TID 0000.0001)         System time:  0.
(PID.TID 0000.0001)     Wall clock time:  0.0546263456
(PID.TID 0000.0001)          No. starts: 200
(PID.TID 0000.0001)           No. stops: 200
(PID.TID 0000.0001)   Seconds in section "DYNAMICS            [FORWARD_STEP]":
(PID.TID 0000.0001)           User time:  0.500000002
(PID.TID 0000.0001)         System time:  0.
(PID.TID 0000.0001)     Wall clock time:  0.470465064
(PID.TID 0000.0001)          No. starts: 100
(PID.TID 0000.0001)           No. stops: 100
(PID.TID 0000.0001)   Seconds in section "UPDATE_SURF_DR     [FORWARD_STEP]":
(PID.TID 0000.0001)           User time:  0.
(PID.TID 0000.0001)         System time:  0.
(PID.TID 0000.0001)     Wall clock time:  0.00629615784
(PID.TID 0000.0001)          No. starts: 100
(PID.TID 0000.0001)           No. stops: 100
(PID.TID 0000.0001)   Seconds in section "UPDATE_CG2D        [FORWARD_STEP]":
(PID.TID 0000.0001)           User time:  0.
(PID.TID 0000.0001)         System time:  0.
(PID.TID 0000.0001)     Wall clock time:  0.00923907757
(PID.TID 0000.0001)          No. starts: 100
(PID.TID 0000.0001)           No. stops: 100
(PID.TID 0000.0001)   Seconds in section "SOLVE_FOR_PRESSURE  [FORWARD_STEP]":
(PID.TID 0000.0001)           User time:  0.149999961
(PID.TID 0000.0001)         System time:  0.
(PID.TID 0000.0001)     Wall clock time:  0.104775906
(PID.TID 0000.0001)          No. starts: 100
(PID.TID 0000.0001)           No. stops: 100
(PID.TID 0000.0001)   Seconds in section "THE_CORRECTION_STEP [FORWARD_STEP]":
(PID.TID 0000.0001)           User time:  0.
(PID.TID 0000.0001)         System time:  0.
(PID.TID 0000.0001)     Wall clock time:  0.0457686186
(PID.TID 0000.0001)          No. starts: 100
(PID.TID 0000.0001)           No. stops: 100
(PID.TID 0000.0001)   Seconds in section "MONITOR             [FORWARD_STEP]":
(PID.TID 0000.0001)           User time:  0.0300000906
(PID.TID 0000.0001)         System time:  0.
(PID.TID 0000.0001)     Wall clock time:  0.0358692408
(PID.TID 0000.0001)          No. starts: 100
(PID.TID 0000.0001)           No. stops: 100
(PID.TID 0000.0001)   Seconds in section "DO_THE_MODEL_IO     [FORWARD_STEP]":
(PID.TID 0000.0001)           User time:  0.
(PID.TID 0000.0001)         System time:  0.
(PID.TID 0000.0001)     Wall clock time:  0.0377053022
(PID.TID 0000.0001)          No. starts: 100
(PID.TID 0000.0001)           No. stops: 100
(PID.TID 0000.0001)   Seconds in section "WRITE_CHECKPOINT    [FORWARD_STEP]":
(PID.TID 0000.0001)           User time:  0.
(PID.TID 0000.0001)         System time:  0.
(PID.TID 0000.0001)     Wall clock time:  0.00204384327
(PID.TID 0000.0001)          No. starts: 100
(PID.TID 0000.0001)           No. stops: 100
(PID.TID 0000.0001)   Seconds in section "WRITE_CHECKPOINT       [THE_MODEL_MAIN]":
(PID.TID 0000.0001)           User time:  0.
(PID.TID 0000.0001)         System time:  0.00999999978
(PID.TID 0000.0001)     Wall clock time:  0.0488760471
(PID.TID 0000.0001)          No. starts: 1
(PID.TID 0000.0001)           No. stops: 1
(PID.TID 0000.0001) // ======================================================
(PID.TID 0000.0001) // Tile <-> Tile communication statistics
(PID.TID 0000.0001) // ======================================================
(PID.TID 0000.0001) // o Tile number: 000001
(PID.TID 0000.0001) //         No. X exchanges =              0
(PID.TID 0000.0001) //            Max. X spins =              0
(PID.TID 0000.0001) //            Min. X spins =     1000000000
(PID.TID 0000.0001) //          Total. X spins =              0
(PID.TID 0000.0001) //            Avg. X spins =       0.00E+00
(PID.TID 0000.0001) //         No. Y exchanges =              0
(PID.TID 0000.0001) //            Max. Y spins =              0
(PID.TID 0000.0001) //            Min. Y spins =     1000000000
(PID.TID 0000.0001) //          Total. Y spins =              0
(PID.TID 0000.0001) //            Avg. Y spins =       0.00E+00
(PID.TID 0000.0001) // o Thread number: 000001
(PID.TID 0000.0001) //            No. barriers =          78810
(PID.TID 0000.0001) //      Max. barrier spins =              1
(PID.TID 0000.0001) //      Min. barrier spins =              1
(PID.TID 0000.0001) //     Total barrier spins =          78810
(PID.TID 0000.0001) //      Avg. barrier spins =       1.00E+00
