(PID.TID 0000.0001) 
(PID.TID 0000.0001) // ======================================================
(PID.TID 0000.0001) //                      MITgcm UV
(PID.TID 0000.0001) //                      =========
(PID.TID 0000.0001) // ======================================================
(PID.TID 0000.0001) // execution environment starting up...
(PID.TID 0000.0001) // Run starting Wed Apr  1 14:19:48 1998
(PID.TID 0000.0001) // on melville.lcs.mit.edu
(PID.TID 0000.0001) // account cnh
(PID.TID 0000.0001) // MITgcm UV Release: $Name:  $
(PID.TID 0000.0001) 
(PID.TID 0000.0001) // =======================================================
(PID.TID 0000.0001) // Execution Environment parameter file "eedata"
(PID.TID 0000.0001) // =======================================================
(PID.TID 0000.0001) ># Example "eedata" file
(PID.TID 0000.0001) ># Lines beginning "#" are comments
(PID.TID 0000.0001) ># nTx - No. threads per process in X
(PID.TID 0000.0001) ># nTy - No. threads per process in Y
(PID.TID 0000.0001) > &EEPARMS
(PID.TID 0000.0001) > &
(PID.TID 0000.0001) ># Note: Some systems use & as the
(PID.TID 0000.0001) ># namelist terminator. Other systems
(PID.TID 0000.0001) ># use a / character (as shown here).
(PID.TID 0000.0001) 
(PID.TID 0000.0001) // =======================================================
(PID.TID 0000.0001) // Computational Grid Specification ( see files "SIZE.h" )
(PID.TID 0000.0001) //                                  ( and "eedata"       )
(PID.TID 0000.0001) // =======================================================
(PID.TID 0000.0001)      nPx =    1 ; /* No. processes in X */
(PID.TID 0000.0001)      nPy =    1 ; /* No. processes in Y */
(PID.TID 0000.0001)      nSx =    1 ; /* No. tiles in X per process */
(PID.TID 0000.0001)      nSy =    1 ; /* No. tiles in Y per process */
(PID.TID 0000.0001)      sNx =   60 ; /* Tile size in X */
(PID.TID 0000.0001)      sNy =    3 ; /* Tile size in Y */
(PID.TID 0000.0001)      OLx =    3 ; /* Tile overlap distance in X */
(PID.TID 0000.0001)      OLy =    3 ; /* Tile overlap distance in Y */
(PID.TID 0000.0001)      nTx =    1 ; /* No. threads in X per process */
(PID.TID 0000.0001)      nTy =    1 ; /* No. threads in Y per process */
(PID.TID 0000.0001)       Nr =   20 ; /* No. levels in the vertical   */
(PID.TID 0000.0001)       nX =   60 ; /* Total domain size in X ( = nPx*nSx*sNx ) */
(PID.TID 0000.0001)       nY =    3 ; /* Total domain size in Y ( = nPy*nSy*sNy ) */
(PID.TID 0000.0001)   nTiles =    1 ; /* Total no. tiles per process ( = nSx*nSy ) */
(PID.TID 0000.0001)   nProcs =    1 ; /* Total no. processes ( = nPx*nPy ) */
(PID.TID 0000.0001) nThreads =    1 ; /* Total no. threads per process ( = nTx*nTy ) */
(PID.TID 0000.0001) usingMPI =    F ; /* Flag used to control whether MPI is in use */
(PID.TID 0000.0001)                   /*  note: To execute a program with MPI calls */
(PID.TID 0000.0001)                   /*  it must be launched appropriately e.g     */
(PID.TID 0000.0001)                   /*  "mpirun -np 64 ......"                    */
(PID.TID 0000.0001) 
(PID.TID 0000.0001) // ======================================================
(PID.TID 0000.0001) // Mapping of tiles to threads
(PID.TID 0000.0001) // ======================================================
(PID.TID 0000.0001) // -o- Thread   1, tiles (   1:   1,   1:   1)
(PID.TID 0000.0001) 
(PID.TID 0000.0001) // ======================================================
(PID.TID 0000.0001) // Tile <-> Tile connectvity table
(PID.TID 0000.0001) // ======================================================
(PID.TID 0000.0001) // Tile number: 000001 (process no. = 000001)
(PID.TID 0000.0001) //        WEST: Tile = 000001, Process = 000001, Comm = put
(PID.TID 0000.0001) //                bi = 000001, bj = 000001
(PID.TID 0000.0001) //        EAST: Tile = 000001, Process = 000001, Comm = put
(PID.TID 0000.0001) //                bi = 000001, bj = 000001
(PID.TID 0000.0001) //       SOUTH: Tile = 000001, Process = 000001, Comm = put
(PID.TID 0000.0001) //                bi = 000001, bj = 000001
(PID.TID 0000.0001) //       NORTH: Tile = 000001, Process = 000001, Comm = put
(PID.TID 0000.0001) //                bi = 000001, bj = 000001
(PID.TID 0000.0001) 
(PID.TID 0000.0001) // =======================================================
(PID.TID 0000.0001) // Model parameter file "data"
(PID.TID 0000.0001) // =======================================================
(PID.TID 0000.0001) ># ====================
(PID.TID 0000.0001) ># | Model parameters |
(PID.TID 0000.0001) ># ====================
(PID.TID 0000.0001) >#
(PID.TID 0000.0001) ># Continuous equation parameters
(PID.TID 0000.0001) > &PARM01
(PID.TID 0000.0001) > Tref = 0.04842, 0.0433231, 0.0382263, 0.0331295,
(PID.TID 0000.0001) >        0.0280326, 0.0229358, 0.0178389, 0.0127421,
(PID.TID 0000.0001) >        0.00764526, 0.00254842, -0.00254842, -0.00764526,
(PID.TID 0000.0001) >       -0.0127421, -0.0178389, -0.0229358, -0.0280326,
(PID.TID 0000.0001) >       -0.0331295, -0.0382263, -0.0433231, -0.04842,
(PID.TID 0000.0001) > sRef= 20*35.,
(PID.TID 0000.0001) > viscAz=1.E-3,
(PID.TID 0000.0001) > viscAh=1.0E-2,
(PID.TID 0000.0001) > no_slip_sides=.FALSE.,
(PID.TID 0000.0001) > no_slip_bottom=.FALSE.,
(PID.TID 0000.0001) > viscA4=0.E12,
(PID.TID 0000.0001) > diffKhT=1.0E-2
(PID.TID 0000.0001) > diffKzT=1.E-3,
(PID.TID 0000.0001) > diffKhS=1.E3,
(PID.TID 0000.0001) > diffKzS=1.E-5,
(PID.TID 0000.0001) > f0=0.0,
(PID.TID 0000.0001) > beta=0.E-11,
(PID.TID 0000.0001) > tAlpha=2.E-4,
(PID.TID 0000.0001) > sBeta =0.E-4,
(PID.TID 0000.0001) > gravity=9.81,
(PID.TID 0000.0001) > gBaro=9.81,
(PID.TID 0000.0001) > rigidLid=.FALSE.,
(PID.TID 0000.0001) > implicitFreeSurface=.TRUE.,
(PID.TID 0000.0001) > eosType='LINEAR',
(PID.TID 0000.0001) > hFacMin=0.2,
(PID.TID 0000.0001) > nonHydrostatic=.FALSE.,
(PID.TID 0000.0001) > readBinaryPrec=64,
(PID.TID 0000.0001) > globalFiles=.TRUE.,
(PID.TID 0000.0001) > writeBinaryPrec=64,
(PID.TID 0000.0001) > writeStatePrec=64,
(PID.TID 0000.0001) > &
(PID.TID 0000.0001) >
(PID.TID 0000.0001) ># Elliptic solver parameters
(PID.TID 0000.0001) > &PARM02
(PID.TID 0000.0001) > cg2dMaxIters=1000,
(PID.TID 0000.0001) > cg2dTargetResidual=1.E-13,
(PID.TID 0000.0001) > cg3dMaxIters=400,
(PID.TID 0000.0001) > cg3dTargetResidual=1.E-13,
(PID.TID 0000.0001) > &
(PID.TID 0000.0001) >
(PID.TID 0000.0001) ># Time stepping parameters
(PID.TID 0000.0001) > &PARM03
(PID.TID 0000.0001) > niter0=0,
(PID.TID 0000.0001) > nTimeSteps=20,
(PID.TID 0000.0001) > deltaT=10.,
(PID.TID 0000.0001) > abEps=0.1,
(PID.TID 0000.0001) > pChkptFreq=300000.0,
(PID.TID 0000.0001) > chkptFreq=0.0,
(PID.TID 0000.0001) > dumpFreq=10000.,
(PID.TID 0000.0001) > monitorFreq=1.,
(PID.TID 0000.0001) > &
(PID.TID 0000.0001) >
(PID.TID 0000.0001) ># Gridding parameters
(PID.TID 0000.0001) > &PARM04
(PID.TID 0000.0001) > usingCartesianGrid=.TRUE.,
(PID.TID 0000.0001) > usingSphericalPolarGrid=.FALSE.,
(PID.TID 0000.0001) > delXfile='delXvar'
(PID.TID 0000.0001) > delY=3*5.e3,
(PID.TID 0000.0001) > delZ=20*10.000000,
(PID.TID 0000.0001) > &
(PID.TID 0000.0001) >
(PID.TID 0000.0001) ># Input datasets
(PID.TID 0000.0001) > &PARM05
(PID.TID 0000.0001) > hydrogThetaFile='T.init',
(PID.TID 0000.0001) > bathyFile='topog.slope',
(PID.TID 0000.0001) > &
(PID.TID 0000.0001) 
(PID.TID 0000.0001) %MON XC_max                       =   1.2972950819672E+04
(PID.TID 0000.0001) %MON XC_min                       =   1.0901639344262E+02
(PID.TID 0000.0001) %MON XC_mean                      =   6.5409836065574E+03
(PID.TID 0000.0001) %MON XC_sd                        =   3.7759141042143E+03
(PID.TID 0000.0001) %MON XG_max                       =   1.2863934426229E+04
(PID.TID 0000.0001) %MON XG_min                       =   5.6843418860808E-14
(PID.TID 0000.0001) %MON XG_mean                      =   6.4319672131147E+03
(PID.TID 0000.0001) %MON XG_sd                        =   3.7759141042143E+03
(PID.TID 0000.0001) %MON DXC_max                      =   2.1803278688525E+02
(PID.TID 0000.0001) %MON DXC_min                      =   2.1803278688525E+02
(PID.TID 0000.0001) %MON DXC_mean                     =   2.1803278688525E+02
(PID.TID 0000.0001) %MON DXC_sd                       =   6.8212102632970E-13
(PID.TID 0000.0001) %MON DXF_max                      =   2.1803278688525E+02
(PID.TID 0000.0001) %MON DXF_min                      =   2.1803278688525E+02
(PID.TID 0000.0001) %MON DXF_mean                     =   2.1803278688525E+02
(PID.TID 0000.0001) %MON DXF_sd                       =   6.8212102632970E-13
(PID.TID 0000.0001) %MON DXG_max                      =   2.1803278688525E+02
(PID.TID 0000.0001) %MON DXG_min                      =   2.1803278688525E+02
(PID.TID 0000.0001) %MON DXG_mean                     =   2.1803278688525E+02
(PID.TID 0000.0001) %MON DXG_sd                       =   6.8212102632970E-13
(PID.TID 0000.0001) %MON DXV_max                      =   2.1803278688525E+02
(PID.TID 0000.0001) %MON DXV_min                      =   2.1803278688525E+02
(PID.TID 0000.0001) %MON DXV_mean                     =   2.1803278688525E+02
(PID.TID 0000.0001) %MON DXV_sd                       =   6.8212102632970E-13
(PID.TID 0000.0001) %MON YC_max                       =   1.2500000000000E+04
(PID.TID 0000.0001) %MON YC_min                       =   2.5000000000000E+03
(PID.TID 0000.0001) %MON YC_mean                      =   7.5000000000000E+03
(PID.TID 0000.0001) %MON YC_sd                        =   4.0824829046386E+03
(PID.TID 0000.0001) %MON YG_max                       =   1.0000000000000E+04
(PID.TID 0000.0001) %MON YG_min                       =   5.0000000000000E+03
(PID.TID 0000.0001) %MON YG_mean                      =   7.5000000000000E+03
(PID.TID 0000.0001) %MON YG_sd                        =   2.5000000000000E+03
(PID.TID 0000.0001) %MON DYC_max                      =   5.0000000000000E+03
(PID.TID 0000.0001) %MON DYC_min                      =   5.0000000000000E+03
(PID.TID 0000.0001) %MON DYC_mean                     =   5.0000000000000E+03
(PID.TID 0000.0001) %MON DYC_sd                       =   0.0000000000000E+00
(PID.TID 0000.0001) %MON DYF_max                      =   5.0000000000000E+03
(PID.TID 0000.0001) %MON DYF_min                      =   5.0000000000000E+03
(PID.TID 0000.0001) %MON DYF_mean                     =   5.0000000000000E+03
(PID.TID 0000.0001) %MON DYF_sd                       =   0.0000000000000E+00
(PID.TID 0000.0001) %MON DYG_max                      =   5.0000000000000E+03
(PID.TID 0000.0001) %MON DYG_min                      =   5.0000000000000E+03
(PID.TID 0000.0001) %MON DYG_mean                     =   5.0000000000000E+03
(PID.TID 0000.0001) %MON DYG_sd                       =   0.0000000000000E+00
(PID.TID 0000.0001) %MON DYU_max                      =   5.0000000000000E+03
(PID.TID 0000.0001) %MON DYU_min                      =   5.0000000000000E+03
(PID.TID 0000.0001) %MON DYU_mean                     =   5.0000000000000E+03
(PID.TID 0000.0001) %MON DYU_sd                       =   0.0000000000000E+00
(PID.TID 0000.0001) %MON RA_max                       =   1.0901639344262E+06
(PID.TID 0000.0001) %MON RA_min                       =   1.0901639344262E+06
(PID.TID 0000.0001) %MON RA_mean                      =   1.0901639344262E+06
(PID.TID 0000.0001) %MON RA_sd                        =   1.6298145055771E-09
(PID.TID 0000.0001) %MON RAW_max                      =   1.0901639344262E+06
(PID.TID 0000.0001) %MON RAW_min                      =   1.0901639344262E+06
(PID.TID 0000.0001) %MON RAW_mean                     =   1.0901639344262E+06
(PID.TID 0000.0001) %MON RAW_sd                       =   1.6298145055771E-09
(PID.TID 0000.0001) %MON RAS_max                      =   1.0901639344262E+06
(PID.TID 0000.0001) %MON RAS_min                      =   1.0901639344262E+06
(PID.TID 0000.0001) %MON RAS_mean                     =   1.0901639344262E+06
(PID.TID 0000.0001) %MON RAS_sd                       =   1.6298145055771E-09
(PID.TID 0000.0001) %MON RAZ_max                      =   1.0901639344262E+06
(PID.TID 0000.0001) %MON RAZ_min                      =   1.0901639344262E+06
(PID.TID 0000.0001) %MON RAZ_mean                     =   1.0901639344262E+06
(PID.TID 0000.0001) %MON RAZ_sd                       =   1.6298145055771E-09
(PID.TID 0000.0001)  MDSREADFIELD: opening global file: topog.slope
(PID.TID 0000.0001) // =======================================================
(PID.TID 0000.0001) // Field Model R_low (ini_masks_etc) at iteration          1
(PID.TID 0000.0001) // CMIN =         -2.000000000000000E+02
(PID.TID 0000.0001) // CMAX =         -2.000000000000000E+02
(PID.TID 0000.0001) // CINT =          0.000000000000000E+00
(PID.TID 0000.0001) // SYMBOLS (CMIN->CMAX): -abcdefghijklmnopqrstuvwxyz+
(PID.TID 0000.0001) //                  0.0: .
(PID.TID 0000.0001) // RANGE I (Lo:Hi:Step):(  -2:  63:   1)
(PID.TID 0000.0001) // RANGE J (Lo:Hi:Step):(   6:  -2:  -1)
(PID.TID 0000.0001) // RANGE K (Lo:Hi:Step):(   1:   1:   1)
(PID.TID 0000.0001) // =======================================================
(PID.TID 0000.0001) K =   1
(PID.TID 0000.0001) //                I=7       I=17      I=27      I=37      I=47      I=57
(PID.TID 0000.0001) // |--J--|**0123456|890123456|890123456|890123456|890123456|890123456|890123
(PID.TID 0000.0001) //      6 ------------------------------------------------------------------
(PID.TID 0000.0001) //      5 ------------------------------------------------------------------
(PID.TID 0000.0001) //      4 ------------------------------------------------------------------
(PID.TID 0000.0001) //      3 ------------------------------------------------------------------
(PID.TID 0000.0001) //      2 ------------------------------------------------------------------
(PID.TID 0000.0001) //      1 ------------------------------------------------------------------
(PID.TID 0000.0001) //      0 ------------------------------------------------------------------
(PID.TID 0000.0001) //     -1 ------------------------------------------------------------------
(PID.TID 0000.0001) //     -2 ------------------------------------------------------------------
(PID.TID 0000.0001) // =======================================================
(PID.TID 0000.0001) // END OF FIELD                                          =
(PID.TID 0000.0001) // =======================================================
(PID.TID 0000.0001) 
(PID.TID 0000.0001) // =======================================================
(PID.TID 0000.0001) // Field Model Ro_surf (ini_masks_etc) at iteration          1
(PID.TID 0000.0001) // CMIN =          1.000000000000000E+32
(PID.TID 0000.0001) // CMAX =         -1.000000000000000E+32
(PID.TID 0000.0001) // CINT =          0.000000000000000E+00
(PID.TID 0000.0001) // SYMBOLS (CMIN->CMAX): -abcdefghijklmnopqrstuvwxyz+
(PID.TID 0000.0001) //                  0.0: .
(PID.TID 0000.0001) // RANGE I (Lo:Hi:Step):(  -2:  63:   1)
(PID.TID 0000.0001) // RANGE J (Lo:Hi:Step):(   6:  -2:  -1)
(PID.TID 0000.0001) // RANGE K (Lo:Hi:Step):(   1:   1:   1)
(PID.TID 0000.0001) // =======================================================
(PID.TID 0000.0001) K =   1
(PID.TID 0000.0001) //                I=7       I=17      I=27      I=37      I=47      I=57
(PID.TID 0000.0001) // |--J--|**0123456|890123456|890123456|890123456|890123456|890123456|890123
(PID.TID 0000.0001) //      6 ..................................................................
(PID.TID 0000.0001) //      5 ..................................................................
(PID.TID 0000.0001) //      4 ..................................................................
(PID.TID 0000.0001) //      3 ..................................................................
(PID.TID 0000.0001) //      2 ..................................................................
(PID.TID 0000.0001) //      1 ..................................................................
(PID.TID 0000.0001) //      0 ..................................................................
(PID.TID 0000.0001) //     -1 ..................................................................
(PID.TID 0000.0001) //     -2 ..................................................................
(PID.TID 0000.0001) // =======================================================
(PID.TID 0000.0001) // END OF FIELD                                          =
(PID.TID 0000.0001) // =======================================================
(PID.TID 0000.0001) 
(PID.TID 0000.0001) // =======================================================
(PID.TID 0000.0001) // Field hFacC at iteration          1
(PID.TID 0000.0001) // CMIN =          1.000000000000000E+00
(PID.TID 0000.0001) // CMAX =          1.000000000000000E+00
(PID.TID 0000.0001) // CINT =          0.000000000000000E+00
(PID.TID 0000.0001) // SYMBOLS (CMIN->CMAX): -abcdefghijklmnopqrstuvwxyz+
(PID.TID 0000.0001) //                  0.0: .
(PID.TID 0000.0001) // RANGE I (Lo:Hi:Step):(  -2:  63:   1)
(PID.TID 0000.0001) // RANGE J (Lo:Hi:Step):(   6:  -2:  -1)
(PID.TID 0000.0001) // RANGE K (Lo:Hi:Step):(   1:   1:   1)
(PID.TID 0000.0001) // =======================================================
(PID.TID 0000.0001) K =   1
(PID.TID 0000.0001) //                I=7       I=17      I=27      I=37      I=47      I=57
(PID.TID 0000.0001) // |--J--|**0123456|890123456|890123456|890123456|890123456|890123456|890123
(PID.TID 0000.0001) //      6 ------------------------------------------------------------------
(PID.TID 0000.0001) //      5 ------------------------------------------------------------------
(PID.TID 0000.0001) //      4 ------------------------------------------------------------------
(PID.TID 0000.0001) //      3 ------------------------------------------------------------------
(PID.TID 0000.0001) //      2 ------------------------------------------------------------------
(PID.TID 0000.0001) //      1 ------------------------------------------------------------------
(PID.TID 0000.0001) //      0 ------------------------------------------------------------------
(PID.TID 0000.0001) //     -1 ------------------------------------------------------------------
(PID.TID 0000.0001) //     -2 ------------------------------------------------------------------
(PID.TID 0000.0001) // =======================================================
(PID.TID 0000.0001) // END OF FIELD                                          =
(PID.TID 0000.0001) // =======================================================
(PID.TID 0000.0001) 
(PID.TID 0000.0001) // =======================================================
(PID.TID 0000.0001) // Field hFacW at iteration          1
(PID.TID 0000.0001) // CMIN =          1.000000000000000E+00
(PID.TID 0000.0001) // CMAX =          1.000000000000000E+00
(PID.TID 0000.0001) // CINT =          0.000000000000000E+00
(PID.TID 0000.0001) // SYMBOLS (CMIN->CMAX): -abcdefghijklmnopqrstuvwxyz+
(PID.TID 0000.0001) //                  0.0: .
(PID.TID 0000.0001) // RANGE I (Lo:Hi:Step):(  -2:  63:   1)
(PID.TID 0000.0001) // RANGE J (Lo:Hi:Step):(   6:  -2:  -1)
(PID.TID 0000.0001) // RANGE K (Lo:Hi:Step):(   1:   1:   1)
(PID.TID 0000.0001) // =======================================================
(PID.TID 0000.0001) K =   1
(PID.TID 0000.0001) //                I=7       I=17      I=27      I=37      I=47      I=57
(PID.TID 0000.0001) // |--J--|**0123456|890123456|890123456|890123456|890123456|890123456|890123
(PID.TID 0000.0001) //      6 ------------------------------------------------------------------
(PID.TID 0000.0001) //      5 ------------------------------------------------------------------
(PID.TID 0000.0001) //      4 ------------------------------------------------------------------
(PID.TID 0000.0001) //      3 ------------------------------------------------------------------
(PID.TID 0000.0001) //      2 ------------------------------------------------------------------
(PID.TID 0000.0001) //      1 ------------------------------------------------------------------
(PID.TID 0000.0001) //      0 ------------------------------------------------------------------
(PID.TID 0000.0001) //     -1 ------------------------------------------------------------------
(PID.TID 0000.0001) //     -2 ------------------------------------------------------------------
(PID.TID 0000.0001) // =======================================================
(PID.TID 0000.0001) // END OF FIELD                                          =
(PID.TID 0000.0001) // =======================================================
(PID.TID 0000.0001) 
(PID.TID 0000.0001) // =======================================================
(PID.TID 0000.0001) // Field hFacS at iteration          1
(PID.TID 0000.0001) // CMIN =          1.000000000000000E+00
(PID.TID 0000.0001) // CMAX =          1.000000000000000E+00
(PID.TID 0000.0001) // CINT =          0.000000000000000E+00
(PID.TID 0000.0001) // SYMBOLS (CMIN->CMAX): -abcdefghijklmnopqrstuvwxyz+
(PID.TID 0000.0001) //                  0.0: .
(PID.TID 0000.0001) // RANGE I (Lo:Hi:Step):(  -2:  63:   1)
(PID.TID 0000.0001) // RANGE J (Lo:Hi:Step):(   6:  -2:  -1)
(PID.TID 0000.0001) // RANGE K (Lo:Hi:Step):(   1:   1:   1)
(PID.TID 0000.0001) // =======================================================
(PID.TID 0000.0001) K =   1
(PID.TID 0000.0001) //                I=7       I=17      I=27      I=37      I=47      I=57
(PID.TID 0000.0001) // |--J--|**0123456|890123456|890123456|890123456|890123456|890123456|890123
(PID.TID 0000.0001) //      6 ------------------------------------------------------------------
(PID.TID 0000.0001) //      5 ------------------------------------------------------------------
(PID.TID 0000.0001) //      4 ------------------------------------------------------------------
(PID.TID 0000.0001) //      3 ------------------------------------------------------------------
(PID.TID 0000.0001) //      2 ------------------------------------------------------------------
(PID.TID 0000.0001) //      1 ------------------------------------------------------------------
(PID.TID 0000.0001) //      0 ------------------------------------------------------------------
(PID.TID 0000.0001) //     -1 ------------------------------------------------------------------
(PID.TID 0000.0001) //     -2 ------------------------------------------------------------------
(PID.TID 0000.0001) // =======================================================
(PID.TID 0000.0001) // END OF FIELD                                          =
(PID.TID 0000.0001) // =======================================================
(PID.TID 0000.0001) 
(PID.TID 0000.0001) %MON fCori_max                    =   0.0000000000000E+00
(PID.TID 0000.0001) %MON fCori_min                    =   0.0000000000000E+00
(PID.TID 0000.0001) %MON fCori_mean                   =   0.0000000000000E+00
(PID.TID 0000.0001) %MON fCori_sd                     =   0.0000000000000E+00
(PID.TID 0000.0001) %MON fCoriG_max                   =   0.0000000000000E+00
(PID.TID 0000.0001) %MON fCoriG_min                   =   0.0000000000000E+00
(PID.TID 0000.0001) %MON fCoriG_mean                  =   0.0000000000000E+00
(PID.TID 0000.0001) %MON fCoriG_sd                    =   0.0000000000000E+00
(PID.TID 0000.0001)  PACKAGE_INIT: opening data.pkg
(PID.TID 0000.0001)  OPEN_COPY_DATA_FILE: opening file data.pkg
(PID.TID 0000.0001) // =======================================================
(PID.TID 0000.0001) // Parameter file "data.pkg"
(PID.TID 0000.0001) // =======================================================
(PID.TID 0000.0001) ># Packages
(PID.TID 0000.0001) > &PACKAGES
(PID.TID 0000.0001) > useOBCS=.TRUE.,
(PID.TID 0000.0001) > &
(PID.TID 0000.0001) 
(PID.TID 0000.0001)  PACKAGE_INIT: finished reading data.pkg
(PID.TID 0000.0001)  OBCS_READPARMS: opening data.obcs
(PID.TID 0000.0001)  OPEN_COPY_DATA_FILE: opening file data.obcs
(PID.TID 0000.0001) // =======================================================
(PID.TID 0000.0001) // Parameter file "data.obcs"
(PID.TID 0000.0001) // =======================================================
(PID.TID 0000.0001) ># Open-boundaries
(PID.TID 0000.0001) > &OBCS_PARM01
(PID.TID 0000.0001) > OB_Ieast=3*-1,
(PID.TID 0000.0001) > OB_Iwest=3*1,
(PID.TID 0000.0001) > &
(PID.TID 0000.0001) >
(PID.TID 0000.0001) 
 OB Jn = 0 0 0 0 0 0 0 0 0 0 0 0 0 0 0 0 0 0 0 0 0 0 0 0 0 0 0 0 0 0 0 0 0 0 0 0
 0 0 0 0 0 0 0 0 0 0 0 0 0 0 0 0 0 0 0 0 0 0 0 0
 OB Js = 0 0 0 0 0 0 0 0 0 0 0 0 0 0 0 0 0 0 0 0 0 0 0 0 0 0 0 0 0 0 0 0 0 0 0 0
 0 0 0 0 0 0 0 0 0 0 0 0 0 0 0 0 0 0 0 0 0 0 0 0
 OB Ie = 60 60 60
 OB Iw = 1 1 1
(PID.TID 0000.0001)  OBCS_READPARMS: finished reading data.obcs
(PID.TID 0000.0001) OBCS_CHECK: #define ALLOW_OBCS
(PID.TID 0000.0001) OBCS_CHECK: #define ALLOW_ORLANSKI
(PID.TID 0000.0001) OBCS_CHECK: OK
(PID.TID 0000.0001) // CG2D normalisation factor =          0.2180327868852459567445418E-03
(PID.TID 0000.0001) 
(PID.TID 0000.0001) // CG3D normalisation factor =          0.9172932330827068432284148E-05
(PID.TID 0000.0001) 
(PID.TID 0000.0001) // =======================================================
(PID.TID 0000.0001) // Model configuration
(PID.TID 0000.0001) // =======================================================
(PID.TID 0000.0001) //
(PID.TID 0000.0001) // "Physical" paramters ( PARM01 in namelist )
(PID.TID 0000.0001) //
(PID.TID 0000.0001) tRef =   /* Reference temperature profile ( oC or oK ) */
(PID.TID 0000.0001)                 4.842000000000000E-02,      /* K =  1 */
(PID.TID 0000.0001)                 4.332310000000000E-02,      /* K =  2 */
(PID.TID 0000.0001)                 3.822630000000000E-02,      /* K =  3 */
(PID.TID 0000.0001)                 3.312950000000000E-02,      /* K =  4 */
(PID.TID 0000.0001)                 2.803260000000000E-02,      /* K =  5 */
(PID.TID 0000.0001)                 2.293580000000000E-02,      /* K =  6 */
(PID.TID 0000.0001)                 1.783890000000000E-02,      /* K =  7 */
(PID.TID 0000.0001)                 1.274210000000000E-02,      /* K =  8 */
(PID.TID 0000.0001)                 7.645260000000000E-03,      /* K =  9 */
(PID.TID 0000.0001)                 2.548420000000000E-03,      /* K = 10 */
(PID.TID 0000.0001)                -2.548420000000000E-03,      /* K = 11 */
(PID.TID 0000.0001)                -7.645260000000000E-03,      /* K = 12 */
(PID.TID 0000.0001)                -1.274210000000000E-02,      /* K = 13 */
(PID.TID 0000.0001)                -1.783890000000000E-02,      /* K = 14 */
(PID.TID 0000.0001)                -2.293580000000000E-02,      /* K = 15 */
(PID.TID 0000.0001)                -2.803260000000000E-02,      /* K = 16 */
(PID.TID 0000.0001)                -3.312950000000000E-02,      /* K = 17 */
(PID.TID 0000.0001)                -3.822630000000000E-02,      /* K = 18 */
(PID.TID 0000.0001)                -4.332310000000000E-02,      /* K = 19 */
(PID.TID 0000.0001)                -4.842000000000000E-02       /* K = 20 */
(PID.TID 0000.0001)     ;
(PID.TID 0000.0001) sRef =   /* Reference salinity profile ( ppt ) */
(PID.TID 0000.0001)    20 @  3.500000000000000E+01              /* K =  1: 20 */
(PID.TID 0000.0001)     ;
(PID.TID 0000.0001) viscAh =   /* Lateral eddy viscosity ( m^2/s ) */
(PID.TID 0000.0001)                 1.000000000000000E-02
(PID.TID 0000.0001)     ;
(PID.TID 0000.0001) viscAh =   /* Lateral biharmonic viscosity ( m^4/s ) */
(PID.TID 0000.0001)                 0.000000000000000E+00
(PID.TID 0000.0001)     ;
(PID.TID 0000.0001) no_slip_sides =  /* Viscous BCs: No-slip sides */
(PID.TID 0000.0001)                   F
(PID.TID 0000.0001)     ;
(PID.TID 0000.0001) viscAz =   /* Vertical eddy viscosity ( m^2/s ) */
(PID.TID 0000.0001)                 1.000000000000000E-03
(PID.TID 0000.0001)     ;
(PID.TID 0000.0001) viscAr =   /* Vertical eddy viscosity ( units of r^2/s ) */
(PID.TID 0000.0001)                 1.000000000000000E-03
(PID.TID 0000.0001)     ;
(PID.TID 0000.0001) diffKhT =   /* Laplacian diffusion of heat laterally ( m^2/s ) */
(PID.TID 0000.0001)                 1.000000000000000E-02
(PID.TID 0000.0001)     ;
(PID.TID 0000.0001) diffK4T =   /* Bihaarmonic diffusion of heat laterally ( m^4/s ) */
(PID.TID 0000.0001)                 0.000000000000000E+00
(PID.TID 0000.0001)     ;
(PID.TID 0000.0001) diffKzT =   /* Laplacian diffusion of heat vertically ( m^2/s ) */
(PID.TID 0000.0001)                 1.000000000000000E-03
(PID.TID 0000.0001)     ;
(PID.TID 0000.0001) diffKrT =   /* Laplacian diffusion of heat vertically ( m^2/s ) */
(PID.TID 0000.0001)                 1.000000000000000E-03
(PID.TID 0000.0001)     ;
(PID.TID 0000.0001) diffKhS =   /* Laplacian diffusion of salt laterally ( m^2/s ) */
(PID.TID 0000.0001)                 1.000000000000000E+03
(PID.TID 0000.0001)     ;
(PID.TID 0000.0001) diffK4S =   /* Bihaarmonic diffusion of salt laterally ( m^4/s ) */
(PID.TID 0000.0001)                 0.000000000000000E+00
(PID.TID 0000.0001)     ;
(PID.TID 0000.0001) diffKzS =   /* Laplacian diffusion of salt vertically ( m^2/s ) */
(PID.TID 0000.0001)                 1.000000000000000E-05
(PID.TID 0000.0001)     ;
(PID.TID 0000.0001) diffKrS =   /* Laplacian diffusion of salt vertically ( m^2/s ) */
(PID.TID 0000.0001)                 1.000000000000000E-05
(PID.TID 0000.0001)     ;
(PID.TID 0000.0001) tAlpha =   /* Linear EOS thermal expansion coefficient ( 1/degree ) */
(PID.TID 0000.0001)                 2.000000000000000E-04
(PID.TID 0000.0001)     ;
(PID.TID 0000.0001) sBeta =   /* Linear EOS haline contraction coefficient ( 1/ppt ) */
(PID.TID 0000.0001)                 0.000000000000000E+00
(PID.TID 0000.0001)     ;
(PID.TID 0000.0001) rhonil =   /* Reference density ( kg/m^3 ) */
(PID.TID 0000.0001)                 9.998000000000000E+02
(PID.TID 0000.0001)     ;
(PID.TID 0000.0001) rhoConst =   /* Reference density ( kg/m^3 ) */
(PID.TID 0000.0001)                 9.998000000000000E+02
(PID.TID 0000.0001)     ;
(PID.TID 0000.0001) gravity =   /* Gravitational acceleration ( m/s^2 ) */
(PID.TID 0000.0001)                 9.810000000000000E+00
(PID.TID 0000.0001)     ;
(PID.TID 0000.0001) gBaro =   /* Barotropic gravity ( m/s^2 ) */
(PID.TID 0000.0001)                 9.810000000000000E+00
(PID.TID 0000.0001)     ;
(PID.TID 0000.0001) f0 =   /* Reference coriolis parameter ( 1/s ) */
(PID.TID 0000.0001)                 0.000000000000000E+00
(PID.TID 0000.0001)     ;
(PID.TID 0000.0001) beta =   /* Beta ( 1/(m.s) ) */
(PID.TID 0000.0001)                 0.000000000000000E+00
(PID.TID 0000.0001)     ;
(PID.TID 0000.0001) freeSurfFac =   /* Implicit free surface factor */
(PID.TID 0000.0001)                 1.000000000000000E+00
(PID.TID 0000.0001)     ;
(PID.TID 0000.0001) implicitFreeSurface =   /* Implicit free surface on/off flag */
(PID.TID 0000.0001)                   T
(PID.TID 0000.0001)     ;
(PID.TID 0000.0001) rigidLid =   /* Rigid lid on/off flag */
(PID.TID 0000.0001)                   F
(PID.TID 0000.0001)     ;
(PID.TID 0000.0001) implicSurfPress =   /* Surface Pressure implicit factor (0-1)*/
(PID.TID 0000.0001)                 1.000000000000000E+00
(PID.TID 0000.0001)     ;
(PID.TID 0000.0001) implicDiv2Dflow =   /* Barot. Flow Div. implicit factor (0-1)*/
(PID.TID 0000.0001)                 1.000000000000000E+00
(PID.TID 0000.0001)     ;
(PID.TID 0000.0001) staggerTimeStep =   /* Stagger time stepping on/off flag */
(PID.TID 0000.0001)                   F
(PID.TID 0000.0001)     ;
(PID.TID 0000.0001) momStepping =  /* Momentum equation on/off flag */
(PID.TID 0000.0001)                   T
(PID.TID 0000.0001)     ;
(PID.TID 0000.0001) momAdvection =  /* Momentum advection on/off flag */
(PID.TID 0000.0001)                   T
(PID.TID 0000.0001)     ;
(PID.TID 0000.0001) momViscosity =  /* Momentum viscosity on/off flag */
(PID.TID 0000.0001)                   T
(PID.TID 0000.0001)     ;
(PID.TID 0000.0001) useCoriolis =  /* Coriolis on/off flag */
(PID.TID 0000.0001)                   T
(PID.TID 0000.0001)     ;
(PID.TID 0000.0001) momForcing =  /* Momentum forcing on/off flag */
(PID.TID 0000.0001)                   T
(PID.TID 0000.0001)     ;
(PID.TID 0000.0001) momPressureForcing =  /* Momentum pressure term on/off flag */
(PID.TID 0000.0001)                   T
(PID.TID 0000.0001)     ;
(PID.TID 0000.0001) tempStepping =  /* Temperature equation on/off flag */
(PID.TID 0000.0001)                   T
(PID.TID 0000.0001)     ;
(PID.TID 0000.0001) nonHydrostatic =  /* Non-Hydrostatic on/off flag */
(PID.TID 0000.0001)                   F
(PID.TID 0000.0001)     ;
(PID.TID 0000.0001) //
(PID.TID 0000.0001) // Elliptic solver(s) paramters ( PARM02 in namelist )
(PID.TID 0000.0001) //
(PID.TID 0000.0001) cg2dMaxIters =   /* Upper limit on 2d con. grad iterations  */
(PID.TID 0000.0001)                    1000
(PID.TID 0000.0001)     ;
(PID.TID 0000.0001) cg2dChkResFreq =   /* 2d con. grad convergence test frequency */
(PID.TID 0000.0001)                       1
(PID.TID 0000.0001)     ;
(PID.TID 0000.0001) cg2dTargetResidual =   /* 2d con. grad target residual  */
(PID.TID 0000.0001)                 1.000000000000000E-13
(PID.TID 0000.0001)     ;
(PID.TID 0000.0001) //
(PID.TID 0000.0001) // Time stepping paramters ( PARM03 in namelist )
(PID.TID 0000.0001) //
(PID.TID 0000.0001) nIter0 =   /* Base timestep number  */
(PID.TID 0000.0001)                       0
(PID.TID 0000.0001)     ;
(PID.TID 0000.0001) nTimeSteps =   /* Number of timesteps */
(PID.TID 0000.0001)                      20
(PID.TID 0000.0001)     ;
(PID.TID 0000.0001) deltatTmom =   /* Momentum equation timestep ( s ) */
(PID.TID 0000.0001)                 1.000000000000000E+01
(PID.TID 0000.0001)     ;
(PID.TID 0000.0001) deltatTtracer =   /* Tracer equation timestep ( s ) */
(PID.TID 0000.0001)                 1.000000000000000E+01
(PID.TID 0000.0001)     ;
(PID.TID 0000.0001) deltatTClock  =   /* Model clock timestep ( s ) */
(PID.TID 0000.0001)                 1.000000000000000E+01
(PID.TID 0000.0001)     ;
(PID.TID 0000.0001) cAdjFreq =   /* Convective adjustment interval ( s ) */
(PID.TID 0000.0001)                 0.000000000000000E+00
(PID.TID 0000.0001)     ;
(PID.TID 0000.0001) abeps =   /* Adams-Bashforth stabilizing weight */
(PID.TID 0000.0001)                 1.000000000000000E-01
(PID.TID 0000.0001)     ;
(PID.TID 0000.0001) tauCD =   /* CD coupling time-scale ( s ) */
(PID.TID 0000.0001)                 1.000000000000000E+01
(PID.TID 0000.0001)     ;
(PID.TID 0000.0001) rCD =   /* Normalised CD coupling parameter */
(PID.TID 0000.0001)                 0.000000000000000E+00
(PID.TID 0000.0001)     ;
(PID.TID 0000.0001) startTime =   /* Run start time ( s ). */
(PID.TID 0000.0001)                 0.000000000000000E+00
(PID.TID 0000.0001)     ;
(PID.TID 0000.0001) endTime =   /* Integration ending time ( s ). */
(PID.TID 0000.0001)                 2.000000000000000E+02
(PID.TID 0000.0001)     ;
(PID.TID 0000.0001) pChkPtFreq =   /* Permanent restart/checkpoint file interval ( s ). */
(PID.TID 0000.0001)                 3.000000000000000E+05
(PID.TID 0000.0001)     ;
(PID.TID 0000.0001) chkPtFreq =   /* Rolling restart/checkpoint file interval ( s ). */
(PID.TID 0000.0001)                 0.000000000000000E+00
(PID.TID 0000.0001)     ;
(PID.TID 0000.0001) dumpFreq =   /* Model state write out interval ( s ). */
(PID.TID 0000.0001)                 1.000000000000000E+04
(PID.TID 0000.0001)     ;
(PID.TID 0000.0001) //
(PID.TID 0000.0001) // Gridding paramters ( PARM04 in namelist )
(PID.TID 0000.0001) //
(PID.TID 0000.0001) usingCartesianGrid =   /* Cartesian coordinates flag ( True / False ) */
(PID.TID 0000.0001)                   T
(PID.TID 0000.0001)     ;
(PID.TID 0000.0001) usingSphericalPolarGrid =   /* Spherical coordinates flag ( True / False ) */
(PID.TID 0000.0001)                   F
(PID.TID 0000.0001)     ;
(PID.TID 0000.0001) groundAtK1 =   /* Lower Boundary (ground) at the surface(k=1) ( T / F ) */
(PID.TID 0000.0001)                   F
(PID.TID 0000.0001)     ;
(PID.TID 0000.0001) Ro_SeaLevel =   /* r(1) ( units of r ) */
(PID.TID 0000.0001)                 0.000000000000000E+00
(PID.TID 0000.0001)     ;
(PID.TID 0000.0001) rkFac =   /* minus Vertical index orientation  */
(PID.TID 0000.0001)                 1.000000000000000E+00
(PID.TID 0000.0001)     ;
(PID.TID 0000.0001) horiVertRatio =   /* Ratio on units : Horiz - Vertical */
(PID.TID 0000.0001)                 1.000000000000000E+00
(PID.TID 0000.0001)     ;
(PID.TID 0000.0001) delZ =   /* W spacing ( m ) */
(PID.TID 0000.0001)    20 @  1.000000000000000E+01              /* K =  1: 20 */
(PID.TID 0000.0001)     ;
(PID.TID 0000.0001) delP =   /* W spacing ( Pa ) */
(PID.TID 0000.0001)    20 @  1.234567000000000E+05              /* K =  1: 20 */
(PID.TID 0000.0001)     ;
(PID.TID 0000.0001) delR =   /* W spacing ( units of r ) */
(PID.TID 0000.0001)    20 @  1.000000000000000E+01              /* K =  1: 20 */
(PID.TID 0000.0001)     ;
(PID.TID 0000.0001) delX =   /* U spacing ( m - cartesian, degrees - spherical ) */
(PID.TID 0000.0001)    60 @  2.180327868852459E+02              /* I =  1: 60 */
(PID.TID 0000.0001)     ;
(PID.TID 0000.0001) delY =   /* V spacing ( m - cartesian, degrees - spherical ) */
(PID.TID 0000.0001)     3 @  5.000000000000000E+03              /* J =  1:  3 */
(PID.TID 0000.0001)     ;
(PID.TID 0000.0001) phiMin =    /* South edge (ignored - cartesian, degrees - spherical ) */
(PID.TID 0000.0001)                 0.000000000000000E+00
(PID.TID 0000.0001)     ;
(PID.TID 0000.0001) thetaMin =    /* West edge ( ignored - cartesian, degrees - spherical ) */
(PID.TID 0000.0001)                 0.000000000000000E+00
(PID.TID 0000.0001)     ;
(PID.TID 0000.0001) rSphere =    /* Radius ( ignored - cartesian, m - spherical ) */
(PID.TID 0000.0001)                 6.370000000000000E+06
(PID.TID 0000.0001)     ;
(PID.TID 0000.0001) xcoord =   /* P-point X coord ( m - cartesian, degrees - spherical ) */
(PID.TID 0000.0001)                 1.090163934426230E+02,      /* I =  1 */
(PID.TID 0000.0001)                 3.270491803278690E+02,      /* I =  2 */
(PID.TID 0000.0001)                 5.450819672131148E+02,      /* I =  3 */
(PID.TID 0000.0001)                 7.631147540983607E+02,      /* I =  4 */
(PID.TID 0000.0001)                 9.811475409836066E+02,      /* I =  5 */
(PID.TID 0000.0001)                 1.199180327868853E+03,      /* I =  6 */
(PID.TID 0000.0001)                 1.417213114754099E+03,      /* I =  7 */
(PID.TID 0000.0001)                 1.635245901639345E+03,      /* I =  8 */
(PID.TID 0000.0001)                 1.853278688524591E+03,      /* I =  9 */
(PID.TID 0000.0001)                 2.071311475409836E+03,      /* I = 10 */
(PID.TID 0000.0001)                 2.289344262295082E+03,      /* I = 11 */
(PID.TID 0000.0001)                 2.507377049180328E+03,      /* I = 12 */
(PID.TID 0000.0001)                 2.725409836065574E+03,      /* I = 13 */
(PID.TID 0000.0001)                 2.943442622950820E+03,      /* I = 14 */
(PID.TID 0000.0001)                 3.161475409836066E+03,      /* I = 15 */
(PID.TID 0000.0001)                 3.379508196721312E+03,      /* I = 16 */
(PID.TID 0000.0001)                 3.597540983606558E+03,      /* I = 17 */
(PID.TID 0000.0001)                 3.815573770491804E+03,      /* I = 18 */
(PID.TID 0000.0001)                 4.033606557377050E+03,      /* I = 19 */
(PID.TID 0000.0001)                 4.251639344262296E+03,      /* I = 20 */
(PID.TID 0000.0001)                 4.469672131147541E+03,      /* I = 21 */
(PID.TID 0000.0001)                 4.687704918032787E+03,      /* I = 22 */
(PID.TID 0000.0001)                 4.905737704918032E+03,      /* I = 23 */
(PID.TID 0000.0001)                 5.123770491803278E+03,      /* I = 24 */
(PID.TID 0000.0001)                 5.341803278688523E+03,      /* I = 25 */
(PID.TID 0000.0001)                 5.559836065573769E+03,      /* I = 26 */
(PID.TID 0000.0001)                 5.777868852459014E+03,      /* I = 27 */
(PID.TID 0000.0001)                 5.995901639344260E+03,      /* I = 28 */
(PID.TID 0000.0001)                 6.213934426229505E+03,      /* I = 29 */
(PID.TID 0000.0001)                 6.431967213114751E+03,      /* I = 30 */
(PID.TID 0000.0001)                 6.649999999999996E+03,      /* I = 31 */
(PID.TID 0000.0001)                 6.868032786885242E+03,      /* I = 32 */
(PID.TID 0000.0001)                 7.086065573770487E+03,      /* I = 33 */
(PID.TID 0000.0001)                 7.304098360655733E+03,      /* I = 34 */
(PID.TID 0000.0001)                 7.522131147540978E+03,      /* I = 35 */
(PID.TID 0000.0001)                 7.740163934426224E+03,      /* I = 36 */
(PID.TID 0000.0001)                 7.958196721311469E+03,      /* I = 37 */
(PID.TID 0000.0001)                 8.176229508196715E+03,      /* I = 38 */
(PID.TID 0000.0001)                 8.394262295081960E+03,      /* I = 39 */
(PID.TID 0000.0001)                 8.612295081967208E+03,      /* I = 40 */
(PID.TID 0000.0001)                 8.830327868852452E+03,      /* I = 41 */
(PID.TID 0000.0001)                 9.048360655737699E+03,      /* I = 42 */
(PID.TID 0000.0001)                 9.266393442622943E+03,      /* I = 43 */
(PID.TID 0000.0001)                 9.484426229508190E+03,      /* I = 44 */
(PID.TID 0000.0001)                 9.702459016393434E+03,      /* I = 45 */
(PID.TID 0000.0001)                 9.920491803278681E+03,      /* I = 46 */
(PID.TID 0000.0001)                 1.013852459016392E+04,      /* I = 47 */
(PID.TID 0000.0001)                 1.035655737704917E+04,      /* I = 48 */
(PID.TID 0000.0001)                 1.057459016393442E+04,      /* I = 49 */
(PID.TID 0000.0001)                 1.079262295081966E+04,      /* I = 50 */
(PID.TID 0000.0001)                 1.101065573770491E+04,      /* I = 51 */
(PID.TID 0000.0001)                 1.122868852459015E+04,      /* I = 52 */
(PID.TID 0000.0001)                 1.144672131147540E+04,      /* I = 53 */
(PID.TID 0000.0001)                 1.166475409836065E+04,      /* I = 54 */
(PID.TID 0000.0001)                 1.188278688524589E+04,      /* I = 55 */
(PID.TID 0000.0001)                 1.210081967213114E+04,      /* I = 56 */
(PID.TID 0000.0001)                 1.231885245901638E+04,      /* I = 57 */
(PID.TID 0000.0001)                 1.253688524590163E+04,      /* I = 58 */
(PID.TID 0000.0001)                 1.275491803278687E+04,      /* I = 59 */
(PID.TID 0000.0001)                 1.297295081967212E+04       /* I = 60 */
(PID.TID 0000.0001)     ;
(PID.TID 0000.0001) ycoord =   /* P-point Y coord ( m - cartesian, degrees - spherical ) */
(PID.TID 0000.0001)                 2.500000000000000E+03,      /* J =  1 */
(PID.TID 0000.0001)                 7.500000000000000E+03,      /* J =  2 */
(PID.TID 0000.0001)                 1.250000000000000E+04       /* J =  3 */
(PID.TID 0000.0001)     ;
(PID.TID 0000.0001) rcoord =   /* P-point R coordinate (  units of r ) */
(PID.TID 0000.0001)                -5.000000000000000E+00,      /* K =  1 */
(PID.TID 0000.0001)                -1.500000000000000E+01,      /* K =  2 */
(PID.TID 0000.0001)                -2.500000000000000E+01,      /* K =  3 */
(PID.TID 0000.0001)                -3.500000000000000E+01,      /* K =  4 */
(PID.TID 0000.0001)                -4.500000000000000E+01,      /* K =  5 */
(PID.TID 0000.0001)                -5.500000000000000E+01,      /* K =  6 */
(PID.TID 0000.0001)                -6.500000000000000E+01,      /* K =  7 */
(PID.TID 0000.0001)                -7.500000000000000E+01,      /* K =  8 */
(PID.TID 0000.0001)                -8.500000000000000E+01,      /* K =  9 */
(PID.TID 0000.0001)                -9.500000000000000E+01,      /* K = 10 */
(PID.TID 0000.0001)                -1.050000000000000E+02,      /* K = 11 */
(PID.TID 0000.0001)                -1.150000000000000E+02,      /* K = 12 */
(PID.TID 0000.0001)                -1.250000000000000E+02,      /* K = 13 */
(PID.TID 0000.0001)                -1.350000000000000E+02,      /* K = 14 */
(PID.TID 0000.0001)                -1.450000000000000E+02,      /* K = 15 */
(PID.TID 0000.0001)                -1.550000000000000E+02,      /* K = 16 */
(PID.TID 0000.0001)                -1.650000000000000E+02,      /* K = 17 */
(PID.TID 0000.0001)                -1.750000000000000E+02,      /* K = 18 */
(PID.TID 0000.0001)                -1.850000000000000E+02,      /* K = 19 */
(PID.TID 0000.0001)                -1.950000000000000E+02       /* K = 20 */
(PID.TID 0000.0001)     ;
(PID.TID 0000.0001) dxF =  /* dxF(:,1,:,1) ( m - cartesian, degrees - spherical ) */
(PID.TID 0000.0001)    60 @  2.180327868852459E+02              /* I =  1: 60 */
(PID.TID 0000.0001)     ;
(PID.TID 0000.0001) dxF =  /* dxF(1,:,1,:) ( m - cartesian, degrees - spherical ) */
(PID.TID 0000.0001)     3 @  2.180327868852459E+02              /* J =  1:  3 */
(PID.TID 0000.0001)     ;
(PID.TID 0000.0001) dyF =  /* dyF(:,1,:,1) ( m - cartesian, degrees - spherical ) */
(PID.TID 0000.0001)    60 @  5.000000000000000E+03              /* I =  1: 60 */
(PID.TID 0000.0001)     ;
(PID.TID 0000.0001) dyF =  /* dyF(1,:,1,:) ( m - cartesian, degrees - spherical ) */
(PID.TID 0000.0001)     3 @  5.000000000000000E+03              /* J =  1:  3 */
(PID.TID 0000.0001)     ;
(PID.TID 0000.0001) dxG =  /* dxG(:,1,:,1) ( m - cartesian, degrees - spherical ) */
(PID.TID 0000.0001)    60 @  2.180327868852459E+02              /* I =  1: 60 */
(PID.TID 0000.0001)     ;
(PID.TID 0000.0001) dxG =  /* dxG(1,:,1,:) ( m - cartesian, degrees - spherical ) */
(PID.TID 0000.0001)     3 @  2.180327868852459E+02              /* J =  1:  3 */
(PID.TID 0000.0001)     ;
(PID.TID 0000.0001) dyG =  /* dyG(:,1,:,1) ( m - cartesian, degrees - spherical ) */
(PID.TID 0000.0001)    60 @  5.000000000000000E+03              /* I =  1: 60 */
(PID.TID 0000.0001)     ;
(PID.TID 0000.0001) dyG =  /* dyG(1,:,1,:) ( m - cartesian, degrees - spherical ) */
(PID.TID 0000.0001)     3 @  5.000000000000000E+03              /* J =  1:  3 */
(PID.TID 0000.0001)     ;
(PID.TID 0000.0001) dxC =  /* dxC(:,1,:,1) ( m - cartesian, degrees - spherical ) */
(PID.TID 0000.0001)    60 @  2.180327868852459E+02              /* I =  1: 60 */
(PID.TID 0000.0001)     ;
(PID.TID 0000.0001) dxC =  /* dxC(1,:,1,:) ( m - cartesian, degrees - spherical ) */
(PID.TID 0000.0001)     3 @  2.180327868852459E+02              /* J =  1:  3 */
(PID.TID 0000.0001)     ;
(PID.TID 0000.0001) dyC =  /* dyC(:,1,:,1) ( m - cartesian, degrees - spherical ) */
(PID.TID 0000.0001)    60 @  5.000000000000000E+03              /* I =  1: 60 */
(PID.TID 0000.0001)     ;
(PID.TID 0000.0001) dyC =  /* dyC(1,:,1,:) ( m - cartesian, degrees - spherical ) */
(PID.TID 0000.0001)     3 @  5.000000000000000E+03              /* J =  1:  3 */
(PID.TID 0000.0001)     ;
(PID.TID 0000.0001) dxV =  /* dxV(:,1,:,1) ( m - cartesian, degrees - spherical ) */
(PID.TID 0000.0001)    60 @  2.180327868852459E+02              /* I =  1: 60 */
(PID.TID 0000.0001)     ;
(PID.TID 0000.0001) dxV =  /* dxV(1,:,1,:) ( m - cartesian, degrees - spherical ) */
(PID.TID 0000.0001)     3 @  2.180327868852459E+02              /* J =  1:  3 */
(PID.TID 0000.0001)     ;
(PID.TID 0000.0001) dyU =  /* dyU(:,1,:,1) ( m - cartesian, degrees - spherical ) */
(PID.TID 0000.0001)    60 @  5.000000000000000E+03              /* I =  1: 60 */
(PID.TID 0000.0001)     ;
(PID.TID 0000.0001) dyU =  /* dyU(1,:,1,:) ( m - cartesian, degrees - spherical ) */
(PID.TID 0000.0001)     3 @  5.000000000000000E+03              /* J =  1:  3 */
(PID.TID 0000.0001)     ;
(PID.TID 0000.0001) rA =  /* rA(:,1,:,1) ( m - cartesian, degrees - spherical ) */
(PID.TID 0000.0001)    60 @  1.090163934426229E+06              /* I =  1: 60 */
(PID.TID 0000.0001)     ;
(PID.TID 0000.0001) rA =  /* rA(1,:,1,:) ( m - cartesian, degrees - spherical ) */
(PID.TID 0000.0001)     3 @  1.090163934426229E+06              /* J =  1:  3 */
(PID.TID 0000.0001)     ;
(PID.TID 0000.0001) rAw =  /* rAw(:,1,:,1) ( m - cartesian, degrees - spherical ) */
(PID.TID 0000.0001)    60 @  1.090163934426229E+06              /* I =  1: 60 */
(PID.TID 0000.0001)     ;
(PID.TID 0000.0001) rAw =  /* rAw(1,:,1,:) ( m - cartesian, degrees - spherical ) */
(PID.TID 0000.0001)     3 @  1.090163934426229E+06              /* J =  1:  3 */
(PID.TID 0000.0001)     ;
(PID.TID 0000.0001) rAs =  /* rAs(:,1,:,1) ( m - cartesian, degrees - spherical ) */
(PID.TID 0000.0001)    60 @  1.090163934426229E+06              /* I =  1: 60 */
(PID.TID 0000.0001)     ;
(PID.TID 0000.0001) rAs =  /* rAs(1,:,1,:) ( m - cartesian, degrees - spherical ) */
(PID.TID 0000.0001)     3 @  1.090163934426229E+06              /* J =  1:  3 */
(PID.TID 0000.0001)     ;
(PID.TID 0000.0001) 
(PID.TID 0000.0001)  MDSREADFIELD: opening global file: T.init
(PID.TID 0000.0001) // =======================================================
(PID.TID 0000.0001) // Field Initial Temperature at iteration          1
(PID.TID 0000.0001) // CMIN =          4.841997961264016E-02
(PID.TID 0000.0001) // CMAX =          4.841997961264016E-02
(PID.TID 0000.0001) // CINT =          0.000000000000000E+00
(PID.TID 0000.0001) // SYMBOLS (CMIN->CMAX): -abcdefghijklmnopqrstuvwxyz+
(PID.TID 0000.0001) //                  0.0: .
(PID.TID 0000.0001) // RANGE I (Lo:Hi:Step):(   1:  60:   1)
(PID.TID 0000.0001) // RANGE J (Lo:Hi:Step):(   3:   1:  -1)
(PID.TID 0000.0001) // RANGE K (Lo:Hi:Step):(   1:   1:   1)
(PID.TID 0000.0001) // =======================================================
(PID.TID 0000.0001) K =   1
(PID.TID 0000.0001)                I=10      I=20      I=30      I=40      I=50      I=60
(PID.TID 0000.0001) |--J--|123456789|123456789|123456789|123456789|123456789|123456789|
(PID.TID 0000.0001)      3 ------------------------------------------------------------
(PID.TID 0000.0001)      2 ------------------------------------------------------------
(PID.TID 0000.0001)      1 ------------------------------------------------------------
(PID.TID 0000.0001) // =======================================================
(PID.TID 0000.0001) // END OF FIELD                                          =
(PID.TID 0000.0001) // =======================================================
(PID.TID 0000.0001) 
(PID.TID 0000.0001) // =======================================================
(PID.TID 0000.0001) // Field Initial Salinity at iteration          1
(PID.TID 0000.0001) // CMIN =          3.500000000000000E+01
(PID.TID 0000.0001) // CMAX =          3.500000000000000E+01
(PID.TID 0000.0001) // CINT =          0.000000000000000E+00
(PID.TID 0000.0001) // SYMBOLS (CMIN->CMAX): -abcdefghijklmnopqrstuvwxyz+
(PID.TID 0000.0001) //                  0.0: .
(PID.TID 0000.0001) // RANGE I (Lo:Hi:Step):(   1:  60:   1)
(PID.TID 0000.0001) // RANGE J (Lo:Hi:Step):(   3:   1:  -1)
(PID.TID 0000.0001) // RANGE K (Lo:Hi:Step):(   1:   1:   1)
(PID.TID 0000.0001) // =======================================================
(PID.TID 0000.0001) K =   1
(PID.TID 0000.0001)                I=10      I=20      I=30      I=40      I=50      I=60
(PID.TID 0000.0001) |--J--|123456789|123456789|123456789|123456789|123456789|123456789|
(PID.TID 0000.0001)      3 ------------------------------------------------------------
(PID.TID 0000.0001)      2 ------------------------------------------------------------
(PID.TID 0000.0001)      1 ------------------------------------------------------------
(PID.TID 0000.0001) // =======================================================
(PID.TID 0000.0001) // END OF FIELD                                          =
(PID.TID 0000.0001) // =======================================================
(PID.TID 0000.0001) 
(PID.TID 0000.0001) // =======================================================
(PID.TID 0000.0001) // Model current state
(PID.TID 0000.0001) // =======================================================
(PID.TID 0000.0001) 
(PID.TID 0000.0001) // =======================================================
(PID.TID 0000.0001) // Begin MONITOR dynamic field statistics
(PID.TID 0000.0001) // =======================================================
(PID.TID 0000.0001) %MON time_tsnumber                =                     0
(PID.TID 0000.0001) %MON time_secondsf                =   0.0000000000000E+00
(PID.TID 0000.0001) %MON time_secondsi                =                     0
(PID.TID 0000.0001) %MON dynstat_eta_max              =   0.0000000000000E+00
(PID.TID 0000.0001) %MON dynstat_eta_min              =   0.0000000000000E+00
(PID.TID 0000.0001) %MON dynstat_eta_mean             =   0.0000000000000E+00
(PID.TID 0000.0001) %MON dynstat_eta_sd               =   0.0000000000000E+00
(PID.TID 0000.0001) %MON dynstat_uvel_max             =   0.0000000000000E+00
(PID.TID 0000.0001) %MON dynstat_uvel_min             =   0.0000000000000E+00
(PID.TID 0000.0001) %MON dynstat_uvel_mean            =   0.0000000000000E+00
(PID.TID 0000.0001) %MON dynstat_uvel_sd              =   0.0000000000000E+00
(PID.TID 0000.0001) %MON dynstat_vvel_max             =   0.0000000000000E+00
(PID.TID 0000.0001) %MON dynstat_vvel_min             =   0.0000000000000E+00
(PID.TID 0000.0001) %MON dynstat_vvel_mean            =   0.0000000000000E+00
(PID.TID 0000.0001) %MON dynstat_vvel_sd              =   0.0000000000000E+00
(PID.TID 0000.0001) %MON dynstat_wvel_max             =   0.0000000000000E+00
(PID.TID 0000.0001) %MON dynstat_wvel_min             =   0.0000000000000E+00
(PID.TID 0000.0001) %MON dynstat_wvel_mean            =   0.0000000000000E+00
(PID.TID 0000.0001) %MON dynstat_wvel_sd              =   0.0000000000000E+00
(PID.TID 0000.0001) %MON dynstat_theta_max            =   4.8420000000000E-02
(PID.TID 0000.0001) %MON dynstat_theta_min            =  -4.8420000000000E-02
(PID.TID 0000.0001) %MON dynstat_theta_mean           =   1.9852946447290E-19
(PID.TID 0000.0001) %MON dynstat_theta_sd             =   2.9389812911327E-02
(PID.TID 0000.0001) %MON dynstat_salt_max             =   3.5000000000000E+01
(PID.TID 0000.0001) %MON dynstat_salt_min             =   3.5000000000000E+01
(PID.TID 0000.0001) %MON dynstat_salt_mean            =   3.5000000000000E+01
(PID.TID 0000.0001) %MON dynstat_salt_sd              =   0.0000000000000E+00
(PID.TID 0000.0001) %MON advcfl_uvel_max              =   0.0000000000000E+00
(PID.TID 0000.0001) %MON advcfl_vvel_max              =   0.0000000000000E+00
(PID.TID 0000.0001) %MON advcfl_wvel_max              =   0.0000000000000E+00
(PID.TID 0000.0001) %MON ke_max                       =   0.0000000000000E+00
(PID.TID 0000.0001) %MON ke_mean                      =   0.0000000000000E+00
(PID.TID 0000.0001) // =======================================================
(PID.TID 0000.0001) // End MONITOR dynamic field statistics
(PID.TID 0000.0001) // =======================================================
 cg2d: Sum(rhs),rhsMax =   3.00000000000000E+00  1.21032510061595E-20
(PID.TID 0000.0001)                    cg2d_init_res =    1.73205080756888E+00
(PID.TID 0000.0001)                       cg2d_iters =    32
(PID.TID 0000.0001)                         cg2d_res =    5.05074417268825E-14
(PID.TID 0000.0001) // =======================================================
(PID.TID 0000.0001) // Begin MONITOR dynamic field statistics
(PID.TID 0000.0001) // =======================================================
(PID.TID 0000.0001) %MON time_tsnumber                =                     1
(PID.TID 0000.0001) %MON time_secondsf                =   1.0000000000000E+01
(PID.TID 0000.0001) %MON time_secondsi                =                    10
(PID.TID 0000.0001) %MON dynstat_eta_max              =  -2.7254594185874E-33
(PID.TID 0000.0001) %MON dynstat_eta_min              =  -1.9643732082008E-21
(PID.TID 0000.0001) %MON dynstat_eta_mean             =  -8.7793109284592E-23
(PID.TID 0000.0001) %MON dynstat_eta_sd               =   3.1484779351544E-22
(PID.TID 0000.0001) %MON dynstat_uvel_max             =   3.2733586131431E-05
(PID.TID 0000.0001) %MON dynstat_uvel_min             =  -3.2733586131431E-05
(PID.TID 0000.0001) %MON dynstat_uvel_mean            =   3.7110488675777E-22
(PID.TID 0000.0001) %MON dynstat_uvel_sd              =   4.2747274891790E-06
(PID.TID 0000.0001) %MON dynstat_vvel_max             =   0.0000000000000E+00
(PID.TID 0000.0001) %MON dynstat_vvel_min             =   0.0000000000000E+00
(PID.TID 0000.0001) %MON dynstat_vvel_mean            =   0.0000000000000E+00
(PID.TID 0000.0001) %MON dynstat_vvel_sd              =   0.0000000000000E+00
(PID.TID 0000.0001) %MON dynstat_wvel_max             =   0.0000000000000E+00
(PID.TID 0000.0001) %MON dynstat_wvel_min             =   0.0000000000000E+00
(PID.TID 0000.0001) %MON dynstat_wvel_mean            =   0.0000000000000E+00
(PID.TID 0000.0001) %MON dynstat_wvel_sd              =   0.0000000000000E+00
(PID.TID 0000.0001) %MON dynstat_theta_max            =   4.8421353074972E-02
(PID.TID 0000.0001) %MON dynstat_theta_min            =  -4.8420000000000E-02
(PID.TID 0000.0001) %MON dynstat_theta_mean           =   1.8316986187360E-07
(PID.TID 0000.0001) %MON dynstat_theta_sd             =   2.9389683078744E-02
(PID.TID 0000.0001) %MON dynstat_salt_max             =   3.5000000000000E+01
(PID.TID 0000.0001) %MON dynstat_salt_min             =   2.3220023743569E+01
(PID.TID 0000.0001) %MON dynstat_salt_mean            =   3.4800339385484E+01
(PID.TID 0000.0001) %MON dynstat_salt_sd              =   1.5205699383295E+00
(PID.TID 0000.0001) %MON advcfl_uvel_max              =   1.5013148526446E-06
(PID.TID 0000.0001) %MON advcfl_vvel_max              =   0.0000000000000E+00
(PID.TID 0000.0001) %MON advcfl_wvel_max              =   0.0000000000000E+00
(PID.TID 0000.0001) %MON ke_max                       =   5.3574383051191E-10
(PID.TID 0000.0001) %MON ke_mean                      =   8.9843700941484E-12
(PID.TID 0000.0001) // =======================================================
(PID.TID 0000.0001) // End MONITOR dynamic field statistics
(PID.TID 0000.0001) // =======================================================
 cg2d: Sum(rhs),rhsMax =  -1.70808997948829E-09  2.15625267269019E-10
(PID.TID 0000.0001)                    cg2d_init_res =    2.44948974196914E+00
(PID.TID 0000.0001)                       cg2d_iters =    31
(PID.TID 0000.0001)                         cg2d_res =    9.76788754334589E-14
(PID.TID 0000.0001) // =======================================================
(PID.TID 0000.0001) // Begin MONITOR dynamic field statistics
(PID.TID 0000.0001) // =======================================================
(PID.TID 0000.0001) %MON time_tsnumber                =                     2
(PID.TID 0000.0001) %MON time_secondsf                =   2.0000000000000E+01
(PID.TID 0000.0001) %MON time_secondsi                =                    20
(PID.TID 0000.0001) %MON dynstat_eta_max              =   5.2082613702398E-12
(PID.TID 0000.0001) %MON dynstat_eta_min              =  -1.3500728091504E-11
(PID.TID 0000.0001) %MON dynstat_eta_mean             =   8.9049794967398E-22
(PID.TID 0000.0001) %MON dynstat_eta_sd               =   1.9732237608215E-12
(PID.TID 0000.0001) %MON dynstat_uvel_max             =   6.5467107201006E-05
(PID.TID 0000.0001) %MON dynstat_uvel_min             =  -6.5467107201006E-05
(PID.TID 0000.0001) %MON dynstat_uvel_mean            =   6.4663720246902E-14
(PID.TID 0000.0001) %MON dynstat_uvel_sd              =   8.5494464818399E-06
(PID.TID 0000.0001) %MON dynstat_vvel_max             =   0.0000000000000E+00
(PID.TID 0000.0001) %MON dynstat_vvel_min             =   0.0000000000000E+00
(PID.TID 0000.0001) %MON dynstat_vvel_mean            =   0.0000000000000E+00
(PID.TID 0000.0001) %MON dynstat_vvel_sd              =   0.0000000000000E+00
(PID.TID 0000.0001) %MON dynstat_wvel_max             =   9.5970849662732E-06
(PID.TID 0000.0001) %MON dynstat_wvel_min             =  -9.5970849662732E-06
(PID.TID 0000.0001) %MON dynstat_wvel_mean            =   2.3568572119929E-23
(PID.TID 0000.0001) %MON dynstat_wvel_sd              =   1.2494340403495E-06
(PID.TID 0000.0001) %MON dynstat_theta_max            =   4.8422706147254E-02
(PID.TID 0000.0001) %MON dynstat_theta_min            =  -4.8420000000000E-02
(PID.TID 0000.0001) %MON dynstat_theta_mean           =   3.6716866989465E-07
(PID.TID 0000.0001) %MON dynstat_theta_sd             =   2.9389602035273E-02
(PID.TID 0000.0001) %MON dynstat_salt_max             =   3.5000000000000E+01
(PID.TID 0000.0001) %MON dynstat_salt_min             =   2.3787101586394E+01
(PID.TID 0000.0001) %MON dynstat_salt_mean            =   3.4742751424222E+01
(PID.TID 0000.0001) %MON dynstat_salt_sd              =   1.5268425123099E+00
(PID.TID 0000.0001) %MON advcfl_uvel_max              =   3.0026267212491E-06
(PID.TID 0000.0001) %MON advcfl_vvel_max              =   0.0000000000000E+00
(PID.TID 0000.0001) %MON advcfl_wvel_max              =   9.5970849662732E-06
(PID.TID 0000.0001) %MON ke_max                       =   2.1429710626340E-09
(PID.TID 0000.0001) %MON ke_mean                      =   3.5937408946707E-11
(PID.TID 0000.0001) // =======================================================
(PID.TID 0000.0001) // End MONITOR dynamic field statistics
(PID.TID 0000.0001) // =======================================================
 cg2d: Sum(rhs),rhsMax =  -6.30006456142748E-11  1.48149475295414E-08
(PID.TID 0000.0001)                    cg2d_init_res =    2.48188527260213E+00
(PID.TID 0000.0001)                       cg2d_iters =    31
(PID.TID 0000.0001)                         cg2d_res =    9.89466707923599E-14
(PID.TID 0000.0001) // =======================================================
(PID.TID 0000.0001) // Begin MONITOR dynamic field statistics
(PID.TID 0000.0001) // =======================================================
(PID.TID 0000.0001) %MON time_tsnumber                =                     3
(PID.TID 0000.0001) %MON time_secondsf                =   3.0000000000000E+01
(PID.TID 0000.0001) %MON time_secondsi                =                    30
(PID.TID 0000.0001) %MON dynstat_eta_max              =   9.2269067656004E-10
(PID.TID 0000.0001) %MON dynstat_eta_min              =  -3.5991578697473E-10
(PID.TID 0000.0001) %MON dynstat_eta_mean             =   2.2588742651862E-21
(PID.TID 0000.0001) %MON dynstat_eta_sd               =   1.3503810742495E-10
(PID.TID 0000.0001) %MON dynstat_uvel_max             =   9.8200498146998E-05
(PID.TID 0000.0001) %MON dynstat_uvel_min             =  -9.8200498146998E-05
(PID.TID 0000.0001) %MON dynstat_uvel_mean            =  -4.4347992187337E-12
(PID.TID 0000.0001) %MON dynstat_uvel_sd              =   1.2824148481801E-05
(PID.TID 0000.0001) %MON dynstat_vvel_max             =   0.0000000000000E+00
(PID.TID 0000.0001) %MON dynstat_vvel_min             =   0.0000000000000E+00
(PID.TID 0000.0001) %MON dynstat_vvel_mean            =   0.0000000000000E+00
(PID.TID 0000.0001) %MON dynstat_vvel_sd              =   0.0000000000000E+00
(PID.TID 0000.0001) %MON dynstat_wvel_max             =   1.9194150857210E-05
(PID.TID 0000.0001) %MON dynstat_wvel_min             =  -1.9194119231266E-05
(PID.TID 0000.0001) %MON dynstat_wvel_mean            =  -1.6749239070000E-23
(PID.TID 0000.0001) %MON dynstat_wvel_sd              =   2.4988635505221E-06
(PID.TID 0000.0001) %MON dynstat_theta_max            =   4.8424059214157E-02
(PID.TID 0000.0001) %MON dynstat_theta_min            =  -4.8420000000000E-02
(PID.TID 0000.0001) %MON dynstat_theta_mean           =   5.5168506219000E-07
(PID.TID 0000.0001) %MON dynstat_theta_sd             =   2.9389521076405E-02
(PID.TID 0000.0001) %MON dynstat_salt_max             =   3.5000000000000E+01
(PID.TID 0000.0001) %MON dynstat_salt_min             =   1.9664406244996E+01
(PID.TID 0000.0001) %MON dynstat_salt_mean            =   3.4656728386796E+01
(PID.TID 0000.0001) %MON dynstat_salt_sd              =   2.0287986740823E+00
(PID.TID 0000.0001) %MON advcfl_uvel_max              =   4.5039326217796E-06
(PID.TID 0000.0001) %MON advcfl_vvel_max              =   0.0000000000000E+00
(PID.TID 0000.0001) %MON advcfl_wvel_max              =   1.9194150857210E-05
(PID.TID 0000.0001) %MON ke_max                       =   4.8216689181592E-09
(PID.TID 0000.0001) %MON ke_mean                      =   8.0858902272626E-11
(PID.TID 0000.0001) // =======================================================
(PID.TID 0000.0001) // End MONITOR dynamic field statistics
(PID.TID 0000.0001) // =======================================================
 cg2d: Sum(rhs),rhsMax =  -3.26238793517739E-11  3.79509059534393E-08
(PID.TID 0000.0001)                    cg2d_init_res =    1.41167466748758E+00
(PID.TID 0000.0001)                       cg2d_iters =    31
(PID.TID 0000.0001)                         cg2d_res =    5.89070141945758E-14
(PID.TID 0000.0001) // =======================================================
(PID.TID 0000.0001) // Begin MONITOR dynamic field statistics
(PID.TID 0000.0001) // =======================================================
(PID.TID 0000.0001) %MON time_tsnumber                =                     4
(PID.TID 0000.0001) %MON time_secondsf                =   4.0000000000000E+01
(PID.TID 0000.0001) %MON time_secondsi                =                    40
(PID.TID 0000.0001) %MON dynstat_eta_max              =   2.5419185471916E-09
(PID.TID 0000.0001) %MON dynstat_eta_min              =  -7.1078095518125E-10
(PID.TID 0000.0001) %MON dynstat_eta_mean             =   2.9954210300583E-21
(PID.TID 0000.0001) %MON dynstat_eta_sd               =   3.6129355856749E-10
(PID.TID 0000.0001) %MON dynstat_uvel_max             =   1.3093369390794E-04
(PID.TID 0000.0001) %MON dynstat_uvel_min             =  -1.3093369390794E-04
(PID.TID 0000.0001) %MON dynstat_uvel_mean            =  -1.1117322352710E-11
(PID.TID 0000.0001) %MON dynstat_uvel_sd              =   1.7098824993638E-05
(PID.TID 0000.0001) %MON dynstat_vvel_max             =   0.0000000000000E+00
(PID.TID 0000.0001) %MON dynstat_vvel_min             =   0.0000000000000E+00
(PID.TID 0000.0001) %MON dynstat_vvel_mean            =   0.0000000000000E+00
(PID.TID 0000.0001) %MON dynstat_vvel_sd              =   0.0000000000000E+00
(PID.TID 0000.0001) %MON dynstat_wvel_max             =   2.8791178597512E-05
(PID.TID 0000.0001) %MON dynstat_wvel_min             =  -2.8790838246502E-05
(PID.TID 0000.0001) %MON dynstat_wvel_mean            =  -5.0247717210001E-24
(PID.TID 0000.0001) %MON dynstat_wvel_sd              =   3.7482692080991E-06
(PID.TID 0000.0001) %MON dynstat_theta_max            =   4.8425412272992E-02
(PID.TID 0000.0001) %MON dynstat_theta_min            =  -4.8420000000000E-02
(PID.TID 0000.0001) %MON dynstat_theta_mean           =   7.3671867007292E-07
(PID.TID 0000.0001) %MON dynstat_theta_sd             =   2.9389440202558E-02
(PID.TID 0000.0001) %MON dynstat_salt_max             =   3.5000000000000E+01
(PID.TID 0000.0001) %MON dynstat_salt_min             =   1.9088904830644E+01
(PID.TID 0000.0001) %MON dynstat_salt_mean            =   3.4595436637021E+01
(PID.TID 0000.0001) %MON dynstat_salt_sd              =   2.1999715122210E+00
(PID.TID 0000.0001) %MON advcfl_uvel_max              =   6.0052295702137E-06
(PID.TID 0000.0001) %MON advcfl_vvel_max              =   0.0000000000000E+00
(PID.TID 0000.0001) %MON advcfl_wvel_max              =   2.8791178597512E-05
(PID.TID 0000.0001) %MON ke_max                       =   8.5718161001887E-09
(PID.TID 0000.0001) %MON ke_mean                      =   1.4374849294690E-10
(PID.TID 0000.0001) // =======================================================
(PID.TID 0000.0001) // End MONITOR dynamic field statistics
(PID.TID 0000.0001) // =======================================================
 cg2d: Sum(rhs),rhsMax =  -2.27706632693734E-11  6.79497981283179E-08
(PID.TID 0000.0001)                    cg2d_init_res =    1.00176485836880E+00
(PID.TID 0000.0001)                       cg2d_iters =    31
(PID.TID 0000.0001)                         cg2d_res =    2.97372757024786E-14
(PID.TID 0000.0001) // =======================================================
(PID.TID 0000.0001) // Begin MONITOR dynamic field statistics
(PID.TID 0000.0001) // =======================================================
(PID.TID 0000.0001) %MON time_tsnumber                =                     5
(PID.TID 0000.0001) %MON time_secondsf                =   5.0000000000000E+01
(PID.TID 0000.0001) %MON time_secondsi                =                    50
(PID.TID 0000.0001) %MON dynstat_eta_max              =   4.7572791719336E-09
(PID.TID 0000.0001) %MON dynstat_eta_min              =  -1.0166403815307E-09
(PID.TID 0000.0001) %MON dynstat_eta_mean             =   3.7427908596185E-21
(PID.TID 0000.0001) %MON dynstat_eta_sd               =   6.6486878028975E-10
(PID.TID 0000.0001) %MON dynstat_uvel_max             =   1.6366662942275E-04
(PID.TID 0000.0001) %MON dynstat_uvel_min             =  -1.6366662942275E-04
(PID.TID 0000.0001) %MON dynstat_uvel_mean            =  -1.9972203429473E-11
(PID.TID 0000.0001) %MON dynstat_uvel_sd              =   2.1373467522873E-05
(PID.TID 0000.0001) %MON dynstat_vvel_max             =   0.0000000000000E+00
(PID.TID 0000.0001) %MON dynstat_vvel_min             =   0.0000000000000E+00
(PID.TID 0000.0001) %MON dynstat_vvel_mean            =   0.0000000000000E+00
(PID.TID 0000.0001) %MON dynstat_vvel_sd              =   0.0000000000000E+00
(PID.TID 0000.0001) %MON dynstat_wvel_max             =   3.8388149111957E-05
(PID.TID 0000.0001) %MON dynstat_wvel_min             =  -3.8387232248403E-05
(PID.TID 0000.0001) %MON dynstat_wvel_mean            =  -2.3448934698000E-23
(PID.TID 0000.0001) %MON dynstat_wvel_sd              =   4.9976502195308E-06
(PID.TID 0000.0001) %MON dynstat_theta_max            =   4.8426765321070E-02
(PID.TID 0000.0001) %MON dynstat_theta_min            =  -4.8420000000000E-02
(PID.TID 0000.0001) %MON dynstat_theta_mean           =   9.2226912333267E-07
(PID.TID 0000.0001) %MON dynstat_theta_sd             =   2.9389359413842E-02
(PID.TID 0000.0001) %MON dynstat_salt_max             =   3.5000000000000E+01
(PID.TID 0000.0001) %MON dynstat_salt_min             =   1.6874791370427E+01
(PID.TID 0000.0001) %MON dynstat_salt_mean            =   3.4528608464180E+01
(PID.TID 0000.0001) %MON dynstat_salt_sd              =   2.4903740742804E+00
(PID.TID 0000.0001) %MON advcfl_uvel_max              =   7.5065145825470E-06
(PID.TID 0000.0001) %MON advcfl_vvel_max              =   0.0000000000000E+00
(PID.TID 0000.0001) %MON advcfl_wvel_max              =   3.8388149111957E-05
(PID.TID 0000.0001) %MON ke_max                       =   1.3393382793301E-08
(PID.TID 0000.0001) %MON ke_mean                      =   2.2460568102625E-10
(PID.TID 0000.0001) // =======================================================
(PID.TID 0000.0001) // End MONITOR dynamic field statistics
(PID.TID 0000.0001) // =======================================================
 cg2d: Sum(rhs),rhsMax =  -1.67066398718081E-11  1.04993392763089E-07
(PID.TID 0000.0001)                    cg2d_init_res =    7.97275507214328E-01
(PID.TID 0000.0001)                       cg2d_iters =    31
(PID.TID 0000.0001)                         cg2d_res =    2.57677078344267E-14
(PID.TID 0000.0001) // =======================================================
(PID.TID 0000.0001) // Begin MONITOR dynamic field statistics
(PID.TID 0000.0001) // =======================================================
(PID.TID 0000.0001) %MON time_tsnumber                =                     6
(PID.TID 0000.0001) %MON time_secondsf                =   6.0000000000000E+01
(PID.TID 0000.0001) %MON time_secondsi                =                    60
(PID.TID 0000.0001) %MON dynstat_eta_max              =   7.5617048993795E-09
(PID.TID 0000.0001) %MON dynstat_eta_min              =  -1.3088215445738E-09
(PID.TID 0000.0001) %MON dynstat_eta_mean             =   4.2416641489017E-21
(PID.TID 0000.0001) %MON dynstat_eta_sd               =   1.0455223133587E-09
(PID.TID 0000.0001) %MON dynstat_uvel_max             =   1.9639923963086E-04
(PID.TID 0000.0001) %MON dynstat_uvel_min             =  -1.9639923963086E-04
(PID.TID 0000.0001) %MON dynstat_uvel_mean            =  -3.1043108807015E-11
(PID.TID 0000.0001) %MON dynstat_uvel_sd              =   2.5648067576269E-05
(PID.TID 0000.0001) %MON dynstat_vvel_max             =   0.0000000000000E+00
(PID.TID 0000.0001) %MON dynstat_vvel_min             =   0.0000000000000E+00
(PID.TID 0000.0001) %MON dynstat_vvel_mean            =   0.0000000000000E+00
(PID.TID 0000.0001) %MON dynstat_vvel_sd              =   0.0000000000000E+00
(PID.TID 0000.0001) %MON dynstat_wvel_max             =   4.7985043325436E-05
(PID.TID 0000.0001) %MON dynstat_wvel_min             =  -4.7983191648425E-05
(PID.TID 0000.0001) %MON dynstat_wvel_mean            =  -7.4893026127287E-23
(PID.TID 0000.0001) %MON dynstat_wvel_sd              =   6.2469980520664E-06
(PID.TID 0000.0001) %MON dynstat_theta_max            =   4.8428118355700E-02
(PID.TID 0000.0001) %MON dynstat_theta_min            =  -4.8420000000000E-02
(PID.TID 0000.0001) %MON dynstat_theta_mean           =   1.1083360508600E-06
(PID.TID 0000.0001) %MON dynstat_theta_sd             =   2.9389278710367E-02
(PID.TID 0000.0001) %MON dynstat_salt_max             =   3.5000000000000E+01
(PID.TID 0000.0001) %MON dynstat_salt_min             =   1.6271819081525E+01
(PID.TID 0000.0001) %MON dynstat_salt_mean            =   3.4473179639803E+01
(PID.TID 0000.0001) %MON dynstat_salt_sd              =   2.6546805763268E+00
(PID.TID 0000.0001) %MON advcfl_uvel_max              =   9.0077846747987E-06
(PID.TID 0000.0001) %MON advcfl_vvel_max              =   0.0000000000000E+00
(PID.TID 0000.0001) %MON advcfl_wvel_max              =   4.7985043325436E-05
(PID.TID 0000.0001) %MON ke_max                       =   1.9286330663789E-08
(PID.TID 0000.0001) %MON ke_mean                      =   3.2342982377892E-10
(PID.TID 0000.0001) // =======================================================
(PID.TID 0000.0001) // End MONITOR dynamic field statistics
(PID.TID 0000.0001) // =======================================================
 cg2d: Sum(rhs),rhsMax =  -1.62549092185988E-11  1.49254566346458E-07
(PID.TID 0000.0001)                    cg2d_init_res =    6.68829436426926E-01
(PID.TID 0000.0001)                       cg2d_iters =    30
(PID.TID 0000.0001)                         cg2d_res =    8.36588214386712E-14
(PID.TID 0000.0001) // =======================================================
(PID.TID 0000.0001) // Begin MONITOR dynamic field statistics
(PID.TID 0000.0001) // =======================================================
(PID.TID 0000.0001) %MON time_tsnumber                =                     7
(PID.TID 0000.0001) %MON time_secondsf                =   7.0000000000000E+01
(PID.TID 0000.0001) %MON time_secondsi                =                    70
(PID.TID 0000.0001) %MON dynstat_eta_max              =   1.0959007399251E-08
(PID.TID 0000.0001) %MON dynstat_eta_min              =  -1.6002117016536E-09
(PID.TID 0000.0001) %MON dynstat_eta_mean             =   5.8699568881662E-21
(PID.TID 0000.0001) %MON dynstat_eta_sd               =   1.5040095693076E-09
(PID.TID 0000.0001) %MON dynstat_uvel_max             =   2.2913145947236E-04
(PID.TID 0000.0001) %MON dynstat_uvel_min             =  -2.2913145947236E-04
(PID.TID 0000.0001) %MON dynstat_uvel_mean            =  -4.4344851900872E-11
(PID.TID 0000.0001) %MON dynstat_uvel_sd              =   2.9922616662099E-05
(PID.TID 0000.0001) %MON dynstat_vvel_max             =   0.0000000000000E+00
(PID.TID 0000.0001) %MON dynstat_vvel_min             =   0.0000000000000E+00
(PID.TID 0000.0001) %MON dynstat_vvel_mean            =   0.0000000000000E+00
(PID.TID 0000.0001) %MON dynstat_vvel_sd              =   0.0000000000000E+00
(PID.TID 0000.0001) %MON dynstat_wvel_max             =   5.7581842162992E-05
(PID.TID 0000.0001) %MON dynstat_wvel_min             =  -5.7578611858925E-05
(PID.TID 0000.0001) %MON dynstat_wvel_mean            =  -1.7658483476657E-22
(PID.TID 0000.0001) %MON dynstat_wvel_sd              =   7.4963045870267E-06
(PID.TID 0000.0001) %MON dynstat_theta_max            =   4.8429471374195E-02
(PID.TID 0000.0001) %MON dynstat_theta_min            =  -4.8420000000000E-02
(PID.TID 0000.0001) %MON dynstat_theta_mean           =   1.2949190804450E-06
(PID.TID 0000.0001) %MON dynstat_theta_sd             =   2.9389198092243E-02
(PID.TID 0000.0001) %MON dynstat_salt_max             =   3.5000000000000E+01
(PID.TID 0000.0001) %MON dynstat_salt_min             =   1.4889055361224E+01
(PID.TID 0000.0001) %MON dynstat_salt_mean            =   3.4416454000141E+01
(PID.TID 0000.0001) %MON dynstat_salt_sd              =   2.8585381249224E+00
(PID.TID 0000.0001) %MON advcfl_uvel_max              =   1.0509036863018E-05
(PID.TID 0000.0001) %MON advcfl_vvel_max              =   0.0000000000000E+00
(PID.TID 0000.0001) %MON advcfl_wvel_max              =   5.7581842162992E-05
(PID.TID 0000.0001) %MON ke_max                       =   2.6250612859966E-08
(PID.TID 0000.0001) %MON ke_mean                      =   4.4022013572186E-10
(PID.TID 0000.0001) // =======================================================
(PID.TID 0000.0001) // End MONITOR dynamic field statistics
(PID.TID 0000.0001) // =======================================================
 cg2d: Sum(rhs),rhsMax =  -1.52351284621774E-11  2.00768114648207E-07
(PID.TID 0000.0001)                    cg2d_init_res =    5.77663668026859E-01
(PID.TID 0000.0001)                       cg2d_iters =    30
(PID.TID 0000.0001)                         cg2d_res =    7.92901673029882E-14
(PID.TID 0000.0001) // =======================================================
(PID.TID 0000.0001) // Begin MONITOR dynamic field statistics
(PID.TID 0000.0001) // =======================================================
(PID.TID 0000.0001) %MON time_tsnumber                =                     8
(PID.TID 0000.0001) %MON time_secondsf                =   8.0000000000000E+01
(PID.TID 0000.0001) %MON time_secondsi                =                    80
(PID.TID 0000.0001) %MON dynstat_eta_max              =   1.4950830409039E-08
(PID.TID 0000.0001) %MON dynstat_eta_min              =  -1.8923158151558E-09
(PID.TID 0000.0001) %MON dynstat_eta_mean             =   7.4080035037330E-21
(PID.TID 0000.0001) %MON dynstat_eta_sd               =   2.0406004370947E-09
(PID.TID 0000.0001) %MON dynstat_uvel_max             =   2.6186322388811E-04
(PID.TID 0000.0001) %MON dynstat_uvel_min             =  -2.6186322388811E-04
(PID.TID 0000.0001) %MON dynstat_uvel_mean            =  -5.9879894578575E-11
(PID.TID 0000.0001) %MON dynstat_uvel_sd              =   3.4197106290420E-05
(PID.TID 0000.0001) %MON dynstat_vvel_max             =   0.0000000000000E+00
(PID.TID 0000.0001) %MON dynstat_vvel_min             =   0.0000000000000E+00
(PID.TID 0000.0001) %MON dynstat_vvel_mean            =   0.0000000000000E+00
(PID.TID 0000.0001) %MON dynstat_vvel_sd              =   0.0000000000000E+00
(PID.TID 0000.0001) %MON dynstat_wvel_max             =   6.7178526549858E-05
(PID.TID 0000.0001) %MON dynstat_wvel_min             =  -6.7173391751129E-05
(PID.TID 0000.0001) %MON dynstat_wvel_mean            =  -4.0198173768001E-23
(PID.TID 0000.0001) %MON dynstat_wvel_sd              =   8.7455619922550E-06
(PID.TID 0000.0001) %MON dynstat_theta_max            =   4.8430824373864E-02
(PID.TID 0000.0001) %MON dynstat_theta_min            =  -4.8420000000000E-02
(PID.TID 0000.0001) %MON dynstat_theta_mean           =   1.4820178389546E-06
(PID.TID 0000.0001) %MON dynstat_theta_sd             =   2.9389117559578E-02
(PID.TID 0000.0001) %MON dynstat_salt_max             =   3.5000000000000E+01
(PID.TID 0000.0001) %MON dynstat_salt_min             =   1.4373836150216E+01
(PID.TID 0000.0001) %MON dynstat_salt_mean            =   3.4366326438104E+01
(PID.TID 0000.0001) %MON dynstat_salt_sd              =   3.0010669829627E+00
(PID.TID 0000.0001) %MON advcfl_uvel_max              =   1.2010268163289E-05
(PID.TID 0000.0001) %MON advcfl_vvel_max              =   0.0000000000000E+00
(PID.TID 0000.0001) %MON advcfl_wvel_max              =   6.7178526549858E-05
(PID.TID 0000.0001) %MON ke_max                       =   3.4286174012536E-08
(PID.TID 0000.0001) %MON ke_mean                      =   5.7497568866560E-10
(PID.TID 0000.0001) // =======================================================
(PID.TID 0000.0001) // End MONITOR dynamic field statistics
(PID.TID 0000.0001) // =======================================================
 cg2d: Sum(rhs),rhsMax =  -1.43091980338929E-11  2.59532539872087E-07
(PID.TID 0000.0001)                    cg2d_init_res =    5.08989233726323E-01
(PID.TID 0000.0001)                       cg2d_iters =    30
(PID.TID 0000.0001)                         cg2d_res =    7.21884411371539E-14
(PID.TID 0000.0001) // =======================================================
(PID.TID 0000.0001) // Begin MONITOR dynamic field statistics
(PID.TID 0000.0001) // =======================================================
(PID.TID 0000.0001) %MON time_tsnumber                =                     9
(PID.TID 0000.0001) %MON time_secondsf                =   9.0000000000000E+01
(PID.TID 0000.0001) %MON time_secondsi                =                    90
(PID.TID 0000.0001) %MON dynstat_eta_max              =   1.9537479817957E-08
(PID.TID 0000.0001) %MON dynstat_eta_min              =  -2.1846011998585E-09
(PID.TID 0000.0001) %MON dynstat_eta_mean             =   9.0085070670551E-21
(PID.TID 0000.0001) %MON dynstat_eta_sd               =   2.6553388614056E-09
(PID.TID 0000.0001) %MON dynstat_uvel_max             =   2.9459446781987E-04
(PID.TID 0000.0001) %MON dynstat_uvel_min             =  -2.9459446781987E-04
(PID.TID 0000.0001) %MON dynstat_uvel_mean            =  -7.7648487033715E-11
(PID.TID 0000.0001) %MON dynstat_uvel_sd              =   3.8471527973350E-05
(PID.TID 0000.0001) %MON dynstat_vvel_max             =   0.0000000000000E+00
(PID.TID 0000.0001) %MON dynstat_vvel_min             =   0.0000000000000E+00
(PID.TID 0000.0001) %MON dynstat_vvel_mean            =   0.0000000000000E+00
(PID.TID 0000.0001) %MON dynstat_vvel_sd              =   0.0000000000000E+00
(PID.TID 0000.0001) %MON dynstat_wvel_max             =   7.6775077411492E-05
(PID.TID 0000.0001) %MON dynstat_wvel_min             =  -7.6767430860329E-05
(PID.TID 0000.0001) %MON dynstat_wvel_mean            =   1.1628757411457E-22
(PID.TID 0000.0001) %MON dynstat_wvel_sd              =   9.9947624910646E-06
(PID.TID 0000.0001) %MON dynstat_theta_max            =   4.8432177352019E-02
(PID.TID 0000.0001) %MON dynstat_theta_min            =  -4.8420000000000E-02
(PID.TID 0000.0001) %MON dynstat_theta_mean           =   1.6696319519687E-06
(PID.TID 0000.0001) %MON dynstat_theta_sd             =   2.9389037112483E-02
(PID.TID 0000.0001) %MON dynstat_salt_max             =   3.5000000000000E+01
(PID.TID 0000.0001) %MON dynstat_salt_min             =   1.3430218146532E+01
(PID.TID 0000.0001) %MON dynstat_salt_mean            =   3.4316179910055E+01
(PID.TID 0000.0001) %MON dynstat_salt_sd              =   3.1587170603306E+00
(PID.TID 0000.0001) %MON advcfl_uvel_max              =   1.3511475591738E-05
(PID.TID 0000.0001) %MON advcfl_vvel_max              =   0.0000000000000E+00
(PID.TID 0000.0001) %MON advcfl_wvel_max              =   7.6775077411492E-05
(PID.TID 0000.0001) %MON ke_max                       =   4.3392950235035E-08
(PID.TID 0000.0001) %MON ke_mean                      =   7.2769541176674E-10
(PID.TID 0000.0001) // =======================================================
(PID.TID 0000.0001) // End MONITOR dynamic field statistics
(PID.TID 0000.0001) // =======================================================
 cg2d: Sum(rhs),rhsMax =  -1.27798284438370E-11  3.25545001195232E-07
(PID.TID 0000.0001)                    cg2d_init_res =    4.55270120875714E-01
(PID.TID 0000.0001)                       cg2d_iters =    30
(PID.TID 0000.0001)                         cg2d_res =    5.49016491684051E-14
(PID.TID 0000.0001) // =======================================================
(PID.TID 0000.0001) // Begin MONITOR dynamic field statistics
(PID.TID 0000.0001) // =======================================================
(PID.TID 0000.0001) %MON time_tsnumber                =                    10
(PID.TID 0000.0001) %MON time_secondsf                =   1.0000000000000E+02
(PID.TID 0000.0001) %MON time_secondsi                =                   100
(PID.TID 0000.0001) %MON dynstat_eta_max              =   2.4718976967210E-08
(PID.TID 0000.0001) %MON dynstat_eta_min              =  -2.4767517592967E-09
(PID.TID 0000.0001) %MON dynstat_eta_mean             =   1.0088527253866E-20
(PID.TID 0000.0001) %MON dynstat_eta_sd               =   3.3482227362908E-09
(PID.TID 0000.0001) %MON dynstat_uvel_max             =   3.2732512621044E-04
(PID.TID 0000.0001) %MON dynstat_uvel_min             =  -3.2732512621044E-04
(PID.TID 0000.0001) %MON dynstat_uvel_mean            =  -9.7650767006072E-11
(PID.TID 0000.0001) %MON dynstat_uvel_sd              =   4.2745873225338E-05
(PID.TID 0000.0001) %MON dynstat_vvel_max             =   0.0000000000000E+00
(PID.TID 0000.0001) %MON dynstat_vvel_min             =   0.0000000000000E+00
(PID.TID 0000.0001) %MON dynstat_vvel_mean            =   0.0000000000000E+00
(PID.TID 0000.0001) %MON dynstat_vvel_sd              =   0.0000000000000E+00
(PID.TID 0000.0001) %MON dynstat_wvel_max             =   8.6371475673621E-05
(PID.TID 0000.0001) %MON dynstat_wvel_min             =  -8.6360628693530E-05
(PID.TID 0000.0001) %MON dynstat_wvel_mean            =   8.6617493476287E-23
(PID.TID 0000.0001) %MON dynstat_wvel_sd              =   1.1243898305066E-05
(PID.TID 0000.0001) %MON dynstat_theta_max            =   4.8433530305969E-02
(PID.TID 0000.0001) %MON dynstat_theta_min            =  -4.8420000000000E-02
(PID.TID 0000.0001) %MON dynstat_theta_mean           =   1.8577610443349E-06
(PID.TID 0000.0001) %MON dynstat_theta_sd             =   2.9388956751066E-02
(PID.TID 0000.0001) %MON dynstat_salt_max             =   3.5000000000000E+01
(PID.TID 0000.0001) %MON dynstat_salt_min             =   1.2999810818901E+01
(PID.TID 0000.0001) %MON dynstat_salt_mean            =   3.4270314048604E+01
(PID.TID 0000.0001) %MON dynstat_salt_sd              =   3.2819722820935E+00
(PID.TID 0000.0001) %MON advcfl_uvel_max              =   1.5012656164539E-05
(PID.TID 0000.0001) %MON advcfl_vvel_max              =   0.0000000000000E+00
(PID.TID 0000.0001) %MON advcfl_wvel_max              =   8.6371475673621E-05
(PID.TID 0000.0001) %MON ke_max                       =   5.3570869124340E-08
(PID.TID 0000.0001) %MON ke_mean                      =   8.9837809158805E-10
(PID.TID 0000.0001) // =======================================================
(PID.TID 0000.0001) // End MONITOR dynamic field statistics
(PID.TID 0000.0001) // =======================================================
 cg2d: Sum(rhs),rhsMax =  -1.68884426753631E-11  3.98804350072551E-07
(PID.TID 0000.0001)                    cg2d_init_res =    4.12030927032050E-01
(PID.TID 0000.0001)                       cg2d_iters =    30
(PID.TID 0000.0001)                         cg2d_res =    4.55878146954315E-14
(PID.TID 0000.0001) // =======================================================
(PID.TID 0000.0001) // Begin MONITOR dynamic field statistics
(PID.TID 0000.0001) // =======================================================
(PID.TID 0000.0001) %MON time_tsnumber                =                    11
(PID.TID 0000.0001) %MON time_secondsf                =   1.1000000000000E+02
(PID.TID 0000.0001) %MON time_secondsi                =                   110
(PID.TID 0000.0001) %MON dynstat_eta_max              =   3.0495317137983E-08
(PID.TID 0000.0001) %MON dynstat_eta_min              =  -2.7686562766228E-09
(PID.TID 0000.0001) %MON dynstat_eta_mean             =   1.6282329857820E-20
(PID.TID 0000.0001) %MON dynstat_eta_sd               =   4.1192458584889E-09
(PID.TID 0000.0001) %MON dynstat_uvel_max             =   3.6005513400378E-04
(PID.TID 0000.0001) %MON dynstat_uvel_min             =  -3.6005513400378E-04
(PID.TID 0000.0001) %MON dynstat_uvel_mean            =  -1.1988687320268E-10
(PID.TID 0000.0001) %MON dynstat_uvel_sd              =   4.7020133563439E-05
(PID.TID 0000.0001) %MON dynstat_vvel_max             =   0.0000000000000E+00
(PID.TID 0000.0001) %MON dynstat_vvel_min             =   0.0000000000000E+00
(PID.TID 0000.0001) %MON dynstat_vvel_mean            =   0.0000000000000E+00
(PID.TID 0000.0001) %MON dynstat_vvel_sd              =   0.0000000000000E+00
(PID.TID 0000.0001) %MON dynstat_wvel_max             =   9.5967702262273E-05
(PID.TID 0000.0001) %MON dynstat_wvel_min             =  -9.5952884719874E-05
(PID.TID 0000.0001) %MON dynstat_wvel_mean            =   3.5891226578572E-23
(PID.TID 0000.0001) %MON dynstat_wvel_sd              =   1.2492961653464E-05
(PID.TID 0000.0001) %MON dynstat_theta_max            =   4.8434883233026E-02
(PID.TID 0000.0001) %MON dynstat_theta_min            =  -4.8420000000000E-02
(PID.TID 0000.0001) %MON dynstat_theta_mean           =   2.0464047397724E-06
(PID.TID 0000.0001) %MON dynstat_theta_sd             =   2.9388876475437E-02
(PID.TID 0000.0001) %MON dynstat_salt_max             =   3.5000000000000E+01
(PID.TID 0000.0001) %MON dynstat_salt_min             =   1.2314542806984E+01
(PID.TID 0000.0001) %MON dynstat_salt_mean            =   3.4224884833689E+01
(PID.TID 0000.0001) %MON dynstat_salt_sd              =   3.4110844636832E+00
(PID.TID 0000.0001) %MON advcfl_uvel_max              =   1.6513806897918E-05
(PID.TID 0000.0001) %MON advcfl_vvel_max              =   0.0000000000000E+00
(PID.TID 0000.0001) %MON advcfl_wvel_max              =   9.5967702262273E-05
(PID.TID 0000.0001) %MON ke_max                       =   6.4819849761241E-08
(PID.TID 0000.0001) %MON ke_mean                      =   1.0870223721662E-09
(PID.TID 0000.0001) // =======================================================
(PID.TID 0000.0001) // End MONITOR dynamic field statistics
(PID.TID 0000.0001) // =======================================================
 cg2d: Sum(rhs),rhsMax =  -1.69664334631039E-11  4.79309856286926E-07
(PID.TID 0000.0001)                    cg2d_init_res =    3.76429808002622E-01
(PID.TID 0000.0001)                       cg2d_iters =    30
(PID.TID 0000.0001)                         cg2d_res =    4.76774090983050E-14
(PID.TID 0000.0001) // =======================================================
(PID.TID 0000.0001) // Begin MONITOR dynamic field statistics
(PID.TID 0000.0001) // =======================================================
(PID.TID 0000.0001) %MON time_tsnumber                =                    12
(PID.TID 0000.0001) %MON time_secondsf                =   1.2000000000000E+02
(PID.TID 0000.0001) %MON time_secondsi                =                   120
(PID.TID 0000.0001) %MON dynstat_eta_max              =   3.6866491946352E-08
(PID.TID 0000.0001) %MON dynstat_eta_min              =  -3.0602507311456E-09
(PID.TID 0000.0001) %MON dynstat_eta_mean             =   1.9632583486026E-20
(PID.TID 0000.0001) %MON dynstat_eta_sd               =   4.9684021086442E-09
(PID.TID 0000.0001) %MON dynstat_uvel_max             =   3.9278442614516E-04
(PID.TID 0000.0001) %MON dynstat_uvel_min             =  -3.9278442614516E-04
(PID.TID 0000.0001) %MON dynstat_uvel_mean            =  -1.4435685170289E-10
(PID.TID 0000.0001) %MON dynstat_uvel_sd              =   5.1294300507590E-05
(PID.TID 0000.0001) %MON dynstat_vvel_max             =   0.0000000000000E+00
(PID.TID 0000.0001) %MON dynstat_vvel_min             =   0.0000000000000E+00
(PID.TID 0000.0001) %MON dynstat_vvel_mean            =   0.0000000000000E+00
(PID.TID 0000.0001) %MON dynstat_vvel_sd              =   0.0000000000000E+00
(PID.TID 0000.0001) %MON dynstat_wvel_max             =   1.0556373810382E-04
(PID.TID 0000.0001) %MON dynstat_wvel_min             =  -1.0554409841196E-04
(PID.TID 0000.0001) %MON dynstat_wvel_mean            =  -2.3927484385715E-23
(PID.TID 0000.0001) %MON dynstat_wvel_sd              =   1.3741944756557E-05
(PID.TID 0000.0001) %MON dynstat_theta_max            =   4.8436236130502E-02
(PID.TID 0000.0001) %MON dynstat_theta_min            =  -4.8420000000000E-02
(PID.TID 0000.0001) %MON dynstat_theta_mean           =   2.2355626609699E-06
(PID.TID 0000.0001) %MON dynstat_theta_sd             =   2.9388796285702E-02
(PID.TID 0000.0001) %MON dynstat_salt_max             =   3.5000000000000E+01
(PID.TID 0000.0001) %MON dynstat_salt_min             =   1.1952213291414E+01
(PID.TID 0000.0001) %MON dynstat_salt_mean            =   3.4182443948190E+01
(PID.TID 0000.0001) %MON dynstat_salt_sd              =   3.5189824017751E+00
(PID.TID 0000.0001) %MON advcfl_uvel_max              =   1.8014924808161E-05
(PID.TID 0000.0001) %MON advcfl_vvel_max              =   0.0000000000000E+00
(PID.TID 0000.0001) %MON advcfl_wvel_max              =   1.0556373810382E-04
(PID.TID 0000.0001) %MON ke_max                       =   7.7139802711091E-08
(PID.TID 0000.0001) %MON ke_mean                      =   1.2936267550870E-09
(PID.TID 0000.0001) // =======================================================
(PID.TID 0000.0001) // End MONITOR dynamic field statistics
(PID.TID 0000.0001) // =======================================================
 cg2d: Sum(rhs),rhsMax =  -1.80528899261107E-11  5.67060700169144E-07
(PID.TID 0000.0001)                    cg2d_init_res =    3.46577797742013E-01
(PID.TID 0000.0001)                       cg2d_iters =    30
(PID.TID 0000.0001)                         cg2d_res =    5.34835356801743E-14
(PID.TID 0000.0001) // =======================================================
(PID.TID 0000.0001) // Begin MONITOR dynamic field statistics
(PID.TID 0000.0001) // =======================================================
(PID.TID 0000.0001) %MON time_tsnumber                =                    13
(PID.TID 0000.0001) %MON time_secondsf                =   1.3000000000000E+02
(PID.TID 0000.0001) %MON time_secondsi                =                   130
(PID.TID 0000.0001) %MON dynstat_eta_max              =   4.3832485754743E-08
(PID.TID 0000.0001) %MON dynstat_eta_min              =  -3.3514709948943E-09
(PID.TID 0000.0001) %MON dynstat_eta_mean             =   2.4715577392506E-20
(PID.TID 0000.0001) %MON dynstat_eta_sd               =   5.8956851431488E-09
(PID.TID 0000.0001) %MON dynstat_uvel_max             =   4.2551293758124E-04
(PID.TID 0000.0001) %MON dynstat_uvel_min             =  -4.2551293758124E-04
(PID.TID 0000.0001) %MON dynstat_uvel_mean            =  -1.7106050608454E-10
(PID.TID 0000.0001) %MON dynstat_uvel_sd              =   5.5568365580879E-05
(PID.TID 0000.0001) %MON dynstat_vvel_max             =   0.0000000000000E+00
(PID.TID 0000.0001) %MON dynstat_vvel_min             =   0.0000000000000E+00
(PID.TID 0000.0001) %MON dynstat_vvel_mean            =   0.0000000000000E+00
(PID.TID 0000.0001) %MON dynstat_vvel_sd              =   0.0000000000000E+00
(PID.TID 0000.0001) %MON dynstat_wvel_max             =   1.1515956412501E-04
(PID.TID 0000.0001) %MON dynstat_wvel_min             =  -1.1513416925920E-04
(PID.TID 0000.0001) %MON dynstat_wvel_mean            =  -2.6224522886743E-22
(PID.TID 0000.0001) %MON dynstat_wvel_sd              =   1.4990839836938E-05
(PID.TID 0000.0001) %MON dynstat_theta_max            =   4.8437588995706E-02
(PID.TID 0000.0001) %MON dynstat_theta_min            =  -4.8420000000000E-02
(PID.TID 0000.0001) %MON dynstat_theta_mean           =   2.4252344298022E-06
(PID.TID 0000.0001) %MON dynstat_theta_sd             =   2.9388716181973E-02
(PID.TID 0000.0001) %MON dynstat_salt_max             =   3.5000000000000E+01
(PID.TID 0000.0001) %MON dynstat_salt_min             =   1.1430733474008E+01
(PID.TID 0000.0001) %MON dynstat_salt_mean            =   3.4140604019854E+01
(PID.TID 0000.0001) %MON dynstat_salt_sd              =   3.6287496117081E+00
(PID.TID 0000.0001) %MON advcfl_uvel_max              =   1.9516006911621E-05
(PID.TID 0000.0001) %MON advcfl_vvel_max              =   0.0000000000000E+00
(PID.TID 0000.0001) %MON advcfl_wvel_max              =   1.1515956412501E-04
(PID.TID 0000.0001) %MON ke_max                       =   9.0530630024509E-08
(PID.TID 0000.0001) %MON ke_mean                      =   1.5181895995684E-09
(PID.TID 0000.0001) // =======================================================
(PID.TID 0000.0001) // End MONITOR dynamic field statistics
(PID.TID 0000.0001) // =======================================================
 cg2d: Sum(rhs),rhsMax =  -1.46855533956479E-11  6.62055902304422E-07
(PID.TID 0000.0001)                    cg2d_init_res =    3.21168596403154E-01
(PID.TID 0000.0001)                       cg2d_iters =    30
(PID.TID 0000.0001)                         cg2d_res =    5.53490757734367E-14
(PID.TID 0000.0001) // =======================================================
(PID.TID 0000.0001) // Begin MONITOR dynamic field statistics
(PID.TID 0000.0001) // =======================================================
(PID.TID 0000.0001) %MON time_tsnumber                =                    14
(PID.TID 0000.0001) %MON time_secondsf                =   1.4000000000000E+02
(PID.TID 0000.0001) %MON time_secondsi                =                   140
(PID.TID 0000.0001) %MON dynstat_eta_max              =   5.1393274557033E-08
(PID.TID 0000.0001) %MON dynstat_eta_min              =  -3.6422470521459E-09
(PID.TID 0000.0001) %MON dynstat_eta_mean             =   2.3474364366357E-20
(PID.TID 0000.0001) %MON dynstat_eta_sd               =   6.9010882083835E-09
(PID.TID 0000.0001) %MON dynstat_uvel_max             =   4.5824060326027E-04
(PID.TID 0000.0001) %MON dynstat_uvel_min             =  -4.5824060326027E-04
(PID.TID 0000.0001) %MON dynstat_uvel_mean            =  -1.9999708712024E-10
(PID.TID 0000.0001) %MON dynstat_uvel_sd              =   5.9842320309823E-05
(PID.TID 0000.0001) %MON dynstat_vvel_max             =   0.0000000000000E+00
(PID.TID 0000.0001) %MON dynstat_vvel_min             =   0.0000000000000E+00
(PID.TID 0000.0001) %MON dynstat_vvel_mean            =   0.0000000000000E+00
(PID.TID 0000.0001) %MON dynstat_vvel_sd              =   0.0000000000000E+00
(PID.TID 0000.0001) %MON dynstat_wvel_max             =   1.2475516125300E-04
(PID.TID 0000.0001) %MON dynstat_wvel_min             =  -1.2472299677070E-04
(PID.TID 0000.0001) %MON dynstat_wvel_mean            =   3.1871409201772E-22
(PID.TID 0000.0001) %MON dynstat_wvel_sd              =   1.6239639119811E-05
(PID.TID 0000.0001) %MON dynstat_theta_max            =   4.8438941825949E-02
(PID.TID 0000.0001) %MON dynstat_theta_min            =  -4.8420000000000E-02
(PID.TID 0000.0001) %MON dynstat_theta_mean           =   2.6154196665075E-06
(PID.TID 0000.0001) %MON dynstat_theta_sd             =   2.9388636164356E-02
(PID.TID 0000.0001) %MON dynstat_salt_max             =   3.5000000000000E+01
(PID.TID 0000.0001) %MON dynstat_salt_min             =   1.1121706416908E+01
(PID.TID 0000.0001) %MON dynstat_salt_mean            =   3.4100963720727E+01
(PID.TID 0000.0001) %MON dynstat_salt_sd              =   3.7244974253720E+00
(PID.TID 0000.0001) %MON advcfl_uvel_max              =   2.1017050224719E-05
(PID.TID 0000.0001) %MON advcfl_vvel_max              =   0.0000000000000E+00
(PID.TID 0000.0001) %MON advcfl_wvel_max              =   1.2475516125300E-04
(PID.TID 0000.0001) %MON ke_max                       =   1.0499222523817E-07
(PID.TID 0000.0001) %MON ke_mean                      =   1.7607091225509E-09
(PID.TID 0000.0001) // =======================================================
(PID.TID 0000.0001) // End MONITOR dynamic field statistics
(PID.TID 0000.0001) // =======================================================
 cg2d: Sum(rhs),rhsMax =  -1.64017119274769E-11  7.64294326804316E-07
(PID.TID 0000.0001)                    cg2d_init_res =    2.99267973051803E-01
(PID.TID 0000.0001)                       cg2d_iters =    30
(PID.TID 0000.0001)                         cg2d_res =    5.36045513146444E-14
(PID.TID 0000.0001) // =======================================================
(PID.TID 0000.0001) // Begin MONITOR dynamic field statistics
(PID.TID 0000.0001) // =======================================================
(PID.TID 0000.0001) %MON time_tsnumber                =                    15
(PID.TID 0000.0001) %MON time_secondsf                =   1.5000000000000E+02
(PID.TID 0000.0001) %MON time_secondsi                =                   150
(PID.TID 0000.0001) %MON dynstat_eta_max              =   5.9548825975083E-08
(PID.TID 0000.0001) %MON dynstat_eta_min              =  -3.9325033372737E-09
(PID.TID 0000.0001) %MON dynstat_eta_mean             =   3.0280271620431E-20
(PID.TID 0000.0001) %MON dynstat_eta_sd               =   7.9846040468549E-09
(PID.TID 0000.0001) %MON dynstat_uvel_max             =   4.9096735813214E-04
(PID.TID 0000.0001) %MON dynstat_uvel_min             =  -4.9096735813214E-04
(PID.TID 0000.0001) %MON dynstat_uvel_mean            =  -2.3116467352504E-10
(PID.TID 0000.0001) %MON dynstat_uvel_sd              =   6.4116156224639E-05
(PID.TID 0000.0001) %MON dynstat_vvel_max             =   0.0000000000000E+00
(PID.TID 0000.0001) %MON dynstat_vvel_min             =   0.0000000000000E+00
(PID.TID 0000.0001) %MON dynstat_vvel_mean            =   0.0000000000000E+00
(PID.TID 0000.0001) %MON dynstat_vvel_sd              =   0.0000000000000E+00
(PID.TID 0000.0001) %MON dynstat_wvel_max             =   1.3435051041542E-04
(PID.TID 0000.0001) %MON dynstat_wvel_min             =  -1.3431048047672E-04
(PID.TID 0000.0001) %MON dynstat_wvel_mean            =  -3.2541378764572E-22
(PID.TID 0000.0001) %MON dynstat_wvel_sd              =   1.7488334833203E-05
(PID.TID 0000.0001) %MON dynstat_theta_max            =   4.8440294618544E-02
(PID.TID 0000.0001) %MON dynstat_theta_min            =  -4.8420000000000E-02
(PID.TID 0000.0001) %MON dynstat_theta_mean           =   2.8061179909800E-06
(PID.TID 0000.0001) %MON dynstat_theta_sd             =   2.9388556232959E-02
(PID.TID 0000.0001) %MON dynstat_salt_max             =   3.5000000000000E+01
(PID.TID 0000.0001) %MON dynstat_salt_min             =   1.0710158260768E+01
(PID.TID 0000.0001) %MON dynstat_salt_mean            =   3.4061970688143E+01
(PID.TID 0000.0001) %MON dynstat_salt_sd              =   3.8202736179189E+00
(PID.TID 0000.0001) %MON advcfl_uvel_max              =   2.2518051763955E-05
(PID.TID 0000.0001) %MON advcfl_vvel_max              =   0.0000000000000E+00
(PID.TID 0000.0001) %MON advcfl_wvel_max              =   1.3435051041542E-04
(PID.TID 0000.0001) %MON ke_max                       =   1.2052447337563E-07
(PID.TID 0000.0001) %MON ke_mean                      =   2.0211833987955E-09
(PID.TID 0000.0001) // =======================================================
(PID.TID 0000.0001) // End MONITOR dynamic field statistics
(PID.TID 0000.0001) // =======================================================
 cg2d: Sum(rhs),rhsMax =  -1.66720861193956E-11  8.73774683959278E-07
(PID.TID 0000.0001)                    cg2d_init_res =    2.80188900920935E-01
(PID.TID 0000.0001)                       cg2d_iters =    30
(PID.TID 0000.0001)                         cg2d_res =    4.96036306337954E-14
(PID.TID 0000.0001) // =======================================================
(PID.TID 0000.0001) // Begin MONITOR dynamic field statistics
(PID.TID 0000.0001) // =======================================================
(PID.TID 0000.0001) %MON time_tsnumber                =                    16
(PID.TID 0000.0001) %MON time_secondsf                =   1.6000000000000E+02
(PID.TID 0000.0001) %MON time_secondsi                =                   160
(PID.TID 0000.0001) %MON dynstat_eta_max              =   6.8299099299243E-08
(PID.TID 0000.0001) %MON dynstat_eta_min              =  -4.2221589548111E-09
(PID.TID 0000.0001) %MON dynstat_eta_mean             =   3.5196171644073E-20
(PID.TID 0000.0001) %MON dynstat_eta_sd               =   9.1462248066704E-09
(PID.TID 0000.0001) %MON dynstat_uvel_max             =   5.2369313714858E-04
(PID.TID 0000.0001) %MON dynstat_uvel_min             =  -5.2369313714858E-04
(PID.TID 0000.0001) %MON dynstat_uvel_mean            =  -2.6455904255489E-10
(PID.TID 0000.0001) %MON dynstat_uvel_sd              =   6.8389864859515E-05
(PID.TID 0000.0001) %MON dynstat_vvel_max             =   0.0000000000000E+00
(PID.TID 0000.0001) %MON dynstat_vvel_min             =   0.0000000000000E+00
(PID.TID 0000.0001) %MON dynstat_vvel_mean            =   0.0000000000000E+00
(PID.TID 0000.0001) %MON dynstat_vvel_sd              =   0.0000000000000E+00
(PID.TID 0000.0001) %MON dynstat_wvel_max             =   1.4394559254039E-04
(PID.TID 0000.0001) %MON dynstat_wvel_min             =  -1.4389651993012E-04
(PID.TID 0000.0001) %MON dynstat_wvel_mean            =  -1.0049543442000E-22
(PID.TID 0000.0001) %MON dynstat_wvel_sd              =   1.8736919208175E-05
(PID.TID 0000.0001) %MON dynstat_theta_max            =   4.8441647370801E-02
(PID.TID 0000.0001) %MON dynstat_theta_min            =  -4.8420000000000E-02
(PID.TID 0000.0001) %MON dynstat_theta_mean           =   2.9973290218346E-06
(PID.TID 0000.0001) %MON dynstat_theta_sd             =   2.9388476387891E-02
(PID.TID 0000.0001) %MON dynstat_salt_max             =   3.5000000000000E+01
(PID.TID 0000.0001) %MON dynstat_salt_min             =   1.0443209137360E+01
(PID.TID 0000.0001) %MON dynstat_salt_mean            =   3.4024664204585E+01
(PID.TID 0000.0001) %MON dynstat_salt_sd              =   3.9062802217785E+00
(PID.TID 0000.0001) %MON advcfl_uvel_max              =   2.4019008545912E-05
(PID.TID 0000.0001) %MON advcfl_vvel_max              =   0.0000000000000E+00
(PID.TID 0000.0001) %MON advcfl_wvel_max              =   1.4394559254039E-04
(PID.TID 0000.0001) %MON ke_max                       =   1.3712725094826E-07
(PID.TID 0000.0001) %MON ke_mean                      =   2.2996103609899E-09
(PID.TID 0000.0001) // =======================================================
(PID.TID 0000.0001) // End MONITOR dynamic field statistics
(PID.TID 0000.0001) // =======================================================
 cg2d: Sum(rhs),rhsMax =  -2.00505536170209E-11  9.90495530509597E-07
(PID.TID 0000.0001)                    cg2d_init_res =    2.63414215794832E-01
(PID.TID 0000.0001)                       cg2d_iters =    30
(PID.TID 0000.0001)                         cg2d_res =    4.37267588652554E-14
(PID.TID 0000.0001) // =======================================================
(PID.TID 0000.0001) // Begin MONITOR dynamic field statistics
(PID.TID 0000.0001) // =======================================================
(PID.TID 0000.0001) %MON time_tsnumber                =                    17
(PID.TID 0000.0001) %MON time_secondsf                =   1.7000000000000E+02
(PID.TID 0000.0001) %MON time_secondsi                =                   170
(PID.TID 0000.0001) %MON dynstat_eta_max              =   7.7644045496507E-08
(PID.TID 0000.0001) %MON dynstat_eta_min              =  -4.5111276969466E-09
(PID.TID 0000.0001) %MON dynstat_eta_mean             =   4.7997461452488E-20
(PID.TID 0000.0001) %MON dynstat_eta_sd               =   1.0385941972765E-08
(PID.TID 0000.0001) %MON dynstat_uvel_max             =   5.5641787526326E-04
(PID.TID 0000.0001) %MON dynstat_uvel_min             =  -5.5641787526326E-04
(PID.TID 0000.0001) %MON dynstat_uvel_mean            =  -3.0017178303170E-10
(PID.TID 0000.0001) %MON dynstat_uvel_sd              =   7.2663437752885E-05
(PID.TID 0000.0001) %MON dynstat_vvel_max             =   0.0000000000000E+00
(PID.TID 0000.0001) %MON dynstat_vvel_min             =   0.0000000000000E+00
(PID.TID 0000.0001) %MON dynstat_vvel_mean            =   0.0000000000000E+00
(PID.TID 0000.0001) %MON dynstat_vvel_sd              =   0.0000000000000E+00
(PID.TID 0000.0001) %MON dynstat_wvel_max             =   1.5354038855655E-04
(PID.TID 0000.0001) %MON dynstat_wvel_min             =  -1.5348101470798E-04
(PID.TID 0000.0001) %MON dynstat_wvel_mean            =  -5.0343427147544E-22
(PID.TID 0000.0001) %MON dynstat_wvel_sd              =   1.9985384479037E-05
(PID.TID 0000.0001) %MON dynstat_theta_max            =   4.8443000080031E-02
(PID.TID 0000.0001) %MON dynstat_theta_min            =  -4.8420000000000E-02
(PID.TID 0000.0001) %MON dynstat_theta_mean           =   3.1890523767086E-06
(PID.TID 0000.0001) %MON dynstat_theta_sd             =   2.9388396629259E-02
(PID.TID 0000.0001) %MON dynstat_salt_max             =   3.5000000000000E+01
(PID.TID 0000.0001) %MON dynstat_salt_min             =   1.0108873028161E+01
(PID.TID 0000.0001) %MON dynstat_salt_mean            =   3.3988000117510E+01
(PID.TID 0000.0001) %MON dynstat_salt_sd              =   3.9914460245096E+00
(PID.TID 0000.0001) %MON advcfl_uvel_max              =   2.5519917587262E-05
(PID.TID 0000.0001) %MON advcfl_vvel_max              =   0.0000000000000E+00
(PID.TID 0000.0001) %MON advcfl_wvel_max              =   1.5354038855655E-04
(PID.TID 0000.0001) %MON ke_max                       =   1.5480042595624E-07
(PID.TID 0000.0001) %MON ke_mean                      =   2.5959877998608E-09
(PID.TID 0000.0001) // =======================================================
(PID.TID 0000.0001) // End MONITOR dynamic field statistics
(PID.TID 0000.0001) // =======================================================
 cg2d: Sum(rhs),rhsMax =  -1.98760264025427E-11  1.11445526961180E-06
(PID.TID 0000.0001)                    cg2d_init_res =    2.48546804606898E-01
(PID.TID 0000.0001)                       cg2d_iters =    29
(PID.TID 0000.0001)                         cg2d_res =    9.45770060222916E-14
(PID.TID 0000.0001) // =======================================================
(PID.TID 0000.0001) // Begin MONITOR dynamic field statistics
(PID.TID 0000.0001) // =======================================================
(PID.TID 0000.0001) %MON time_tsnumber                =                    18
(PID.TID 0000.0001) %MON time_secondsf                =   1.8000000000000E+02
(PID.TID 0000.0001) %MON time_secondsi                =                   180
(PID.TID 0000.0001) %MON dynstat_eta_max              =   8.7583607209659E-08
(PID.TID 0000.0001) %MON dynstat_eta_min              =  -4.7993180411538E-09
(PID.TID 0000.0001) %MON dynstat_eta_mean             =   5.3534323010742E-20
(PID.TID 0000.0001) %MON dynstat_eta_sd               =   1.1703746353764E-08
(PID.TID 0000.0001) %MON dynstat_uvel_max             =   5.8914150743190E-04
(PID.TID 0000.0001) %MON dynstat_uvel_min             =  -5.8914150743190E-04
(PID.TID 0000.0001) %MON dynstat_uvel_mean            =  -3.3798739532260E-10
(PID.TID 0000.0001) %MON dynstat_uvel_sd              =   7.6936866447701E-05
(PID.TID 0000.0001) %MON dynstat_vvel_max             =   0.0000000000000E+00
(PID.TID 0000.0001) %MON dynstat_vvel_min             =   0.0000000000000E+00
(PID.TID 0000.0001) %MON dynstat_vvel_mean            =   0.0000000000000E+00
(PID.TID 0000.0001) %MON dynstat_vvel_sd              =   0.0000000000000E+00
(PID.TID 0000.0001) %MON dynstat_wvel_max             =   1.6313487939310E-04
(PID.TID 0000.0001) %MON dynstat_wvel_min             =  -1.6306386441317E-04
(PID.TID 0000.0001) %MON dynstat_wvel_mean            =   2.3544644635543E-22
(PID.TID 0000.0001) %MON dynstat_wvel_sd              =   2.1233722883568E-05
(PID.TID 0000.0001) %MON dynstat_theta_max            =   4.8444352743545E-02
(PID.TID 0000.0001) %MON dynstat_theta_min            =  -4.8420000000000E-02
(PID.TID 0000.0001) %MON dynstat_theta_mean           =   3.3812876722997E-06
(PID.TID 0000.0001) %MON dynstat_theta_sd             =   2.9388316957171E-02
(PID.TID 0000.0001) %MON dynstat_salt_max             =   3.5000000000000E+01
(PID.TID 0000.0001) %MON dynstat_salt_min             =   9.8756605899483E+00
(PID.TID 0000.0001) %MON dynstat_salt_mean            =   3.3952672138007E+01
(PID.TID 0000.0001) %MON dynstat_salt_sd              =   4.0695077000972E+00
(PID.TID 0000.0001) %MON advcfl_uvel_max              =   2.7020775904771E-05
(PID.TID 0000.0001) %MON advcfl_vvel_max              =   0.0000000000000E+00
(PID.TID 0000.0001) %MON advcfl_wvel_max              =   1.6313487939310E-04
(PID.TID 0000.0001) %MON ke_max                       =   1.7354385788957E-07
(PID.TID 0000.0001) %MON ke_mean                      =   2.9103133642953E-09
(PID.TID 0000.0001) // =======================================================
(PID.TID 0000.0001) // End MONITOR dynamic field statistics
(PID.TID 0000.0001) // =======================================================
 cg2d: Sum(rhs),rhsMax =  -1.99993372862093E-11  1.24565215089113E-06
(PID.TID 0000.0001)                    cg2d_init_res =    2.35276457989401E-01
(PID.TID 0000.0001)                       cg2d_iters =    29
(PID.TID 0000.0001)                         cg2d_res =    7.93073815441828E-14
(PID.TID 0000.0001) // =======================================================
(PID.TID 0000.0001) // Begin MONITOR dynamic field statistics
(PID.TID 0000.0001) // =======================================================
(PID.TID 0000.0001) %MON time_tsnumber                =                    19
(PID.TID 0000.0001) %MON time_secondsf                =   1.9000000000000E+02
(PID.TID 0000.0001) %MON time_secondsi                =                   190
(PID.TID 0000.0001) %MON dynstat_eta_max              =   9.8117718760509E-08
(PID.TID 0000.0001) %MON dynstat_eta_min              =  -5.0866331515264E-09
(PID.TID 0000.0001) %MON dynstat_eta_mean             =   6.0237069983338E-20
(PID.TID 0000.0001) %MON dynstat_eta_sd               =   1.3099628182304E-08
(PID.TID 0000.0001) %MON dynstat_uvel_max             =   6.2186396861243E-04
(PID.TID 0000.0001) %MON dynstat_uvel_min             =  -6.2186396861243E-04
(PID.TID 0000.0001) %MON dynstat_uvel_mean            =  -3.7797919597696E-10
(PID.TID 0000.0001) %MON dynstat_uvel_sd              =   8.1210142491704E-05
(PID.TID 0000.0001) %MON dynstat_vvel_max             =   0.0000000000000E+00
(PID.TID 0000.0001) %MON dynstat_vvel_min             =   0.0000000000000E+00
(PID.TID 0000.0001) %MON dynstat_vvel_mean            =   0.0000000000000E+00
(PID.TID 0000.0001) %MON dynstat_vvel_sd              =   0.0000000000000E+00
(PID.TID 0000.0001) %MON dynstat_wvel_max             =   1.7272904597988E-04
(PID.TID 0000.0001) %MON dynstat_wvel_min             =  -1.7264496867587E-04
(PID.TID 0000.0001) %MON dynstat_wvel_mean            =  -8.6426073601201E-22
(PID.TID 0000.0001) %MON dynstat_wvel_sd              =   2.2481926663226E-05
(PID.TID 0000.0001) %MON dynstat_theta_max            =   4.8445705358656E-02
(PID.TID 0000.0001) %MON dynstat_theta_min            =  -4.8420000000000E-02
(PID.TID 0000.0001) %MON dynstat_theta_mean           =   3.5740345238117E-06
(PID.TID 0000.0001) %MON dynstat_theta_sd             =   2.9388237371735E-02
(PID.TID 0000.0001) %MON dynstat_salt_max             =   3.5000000000000E+01
(PID.TID 0000.0001) %MON dynstat_salt_min             =   9.5976029876780E+00
(PID.TID 0000.0001) %MON dynstat_salt_mean            =   3.3917959274175E+01
(PID.TID 0000.0001) %MON dynstat_salt_sd              =   4.1463319466677E+00
(PID.TID 0000.0001) %MON advcfl_uvel_max              =   2.8521580515307E-05
(PID.TID 0000.0001) %MON advcfl_vvel_max              =   0.0000000000000E+00
(PID.TID 0000.0001) %MON advcfl_wvel_max              =   1.7272904597988E-04
(PID.TID 0000.0001) %MON ke_max                       =   1.9335739772920E-07
(PID.TID 0000.0001) %MON ke_mean                      =   3.2425845614690E-09
(PID.TID 0000.0001) // =======================================================
(PID.TID 0000.0001) // End MONITOR dynamic field statistics
(PID.TID 0000.0001) // =======================================================
 cg2d: Sum(rhs),rhsMax =  -2.08545919926474E-11  1.38408427049128E-06
(PID.TID 0000.0001)                    cg2d_init_res =    2.23357192342940E-01
(PID.TID 0000.0001)                       cg2d_iters =    29
(PID.TID 0000.0001)                         cg2d_res =    7.12114361902770E-14
(PID.TID 0000.0001) // =======================================================
(PID.TID 0000.0001) // Begin MONITOR dynamic field statistics
(PID.TID 0000.0001) // =======================================================
(PID.TID 0000.0001) %MON time_tsnumber                =                    20
(PID.TID 0000.0001) %MON time_secondsf                =   2.0000000000000E+02
(PID.TID 0000.0001) %MON time_secondsi                =                   200
(PID.TID 0000.0001) %MON dynstat_eta_max              =   1.0924630615061E-07
(PID.TID 0000.0001) %MON dynstat_eta_min              =  -5.3729708829539E-09
(PID.TID 0000.0001) %MON dynstat_eta_mean             =   6.9805408330535E-20
(PID.TID 0000.0001) %MON dynstat_eta_sd               =   1.4573577429858E-08
(PID.TID 0000.0001) %MON dynstat_uvel_max             =   6.5458519376511E-04
(PID.TID 0000.0001) %MON dynstat_uvel_min             =  -6.5458519376511E-04
(PID.TID 0000.0001) %MON dynstat_uvel_mean            =  -4.2010400913301E-10
(PID.TID 0000.0001) %MON dynstat_uvel_sd              =   8.5483257437695E-05
(PID.TID 0000.0001) %MON dynstat_vvel_max             =   0.0000000000000E+00
(PID.TID 0000.0001) %MON dynstat_vvel_min             =   0.0000000000000E+00
(PID.TID 0000.0001) %MON dynstat_vvel_mean            =   0.0000000000000E+00
(PID.TID 0000.0001) %MON dynstat_vvel_sd              =   0.0000000000000E+00
(PID.TID 0000.0001) %MON dynstat_wvel_max             =   1.8232286924734E-04
(PID.TID 0000.0001) %MON dynstat_wvel_min             =  -1.8222422715514E-04
(PID.TID 0000.0001) %MON dynstat_wvel_mean            =  -2.2970385010286E-23
(PID.TID 0000.0001) %MON dynstat_wvel_sd              =   2.3729988063373E-05
(PID.TID 0000.0001) %MON dynstat_theta_max            =   4.8447057922674E-02
(PID.TID 0000.0001) %MON dynstat_theta_min            =  -4.8420000000000E-02
(PID.TID 0000.0001) %MON dynstat_theta_mean           =   3.7672925461781E-06
(PID.TID 0000.0001) %MON dynstat_theta_sd             =   2.9388157873056E-02
(PID.TID 0000.0001) %MON dynstat_salt_max             =   3.5000000000000E+01
(PID.TID 0000.0001) %MON dynstat_salt_min             =   9.3918719496131E+00
(PID.TID 0000.0001) %MON dynstat_salt_mean            =   3.3884333648669E+01
(PID.TID 0000.0001) %MON dynstat_salt_sd              =   4.2178051813467E+00
(PID.TID 0000.0001) %MON advcfl_uvel_max              =   3.0022328435844E-05
(PID.TID 0000.0001) %MON advcfl_vvel_max              =   0.0000000000000E+00
(PID.TID 0000.0001) %MON advcfl_wvel_max              =   1.8232286924734E-04
(PID.TID 0000.0001) %MON ke_max                       =   2.1424088794826E-07
(PID.TID 0000.0001) %MON ke_mean                      =   3.5927987569817E-09
(PID.TID 0000.0001) // =======================================================
(PID.TID 0000.0001) // End MONITOR dynamic field statistics
(PID.TID 0000.0001) // =======================================================
(PID.TID 0000.0001)   Seconds in section "ALL                [THE_MODEL_MAIN]":
(PID.TID 0000.0001)           User time:  1.50999999
(PID.TID 0000.0001)         System time:  0.
(PID.TID 0000.0001)     Wall clock time:  1.50570607
(PID.TID 0000.0001)          No. starts: 1
(PID.TID 0000.0001)           No. stops: 1
(PID.TID 0000.0001)   Seconds in section "INITIALISE_FIXED   [THE_MODEL_MAIN]":
(PID.TID 0000.0001)           User time:  0.0799999982
(PID.TID 0000.0001)         System time:  0.
(PID.TID 0000.0001)     Wall clock time:  0.0751850605
(PID.TID 0000.0001)          No. starts: 1
(PID.TID 0000.0001)           No. stops: 1
(PID.TID 0000.0001)   Seconds in section "THE_MAIN_LOOP      [THE_MODEL_MAIN]":
(PID.TID 0000.0001)           User time:  1.40000002
(PID.TID 0000.0001)         System time:  0.
(PID.TID 0000.0001)     Wall clock time:  1.39712095
(PID.TID 0000.0001)          No. starts: 1
(PID.TID 0000.0001)           No. stops: 1
(PID.TID 0000.0001)   Seconds in section "INITIALISE_VARIA    [THE_MAIN_LOOP]":
(PID.TID 0000.0001)           User time:  0.0200000033
(PID.TID 0000.0001)         System time:  0.
(PID.TID 0000.0001)     Wall clock time:  0.0233510733
(PID.TID 0000.0001)          No. starts: 1
(PID.TID 0000.0001)           No. stops: 1
(PID.TID 0000.0001)   Seconds in section "WRITE_STATE         [THE_MAIN_LOOP]":
(PID.TID 0000.0001)           User time:  0.00999999791
(PID.TID 0000.0001)         System time:  0.
(PID.TID 0000.0001)     Wall clock time:  0.0101089478
(PID.TID 0000.0001)          No. starts: 1
(PID.TID 0000.0001)           No. stops: 1
(PID.TID 0000.0001)   Seconds in section "MONITOR             [THE_MAIN_LOOP]":
(PID.TID 0000.0001)           User time:  0.00999999791
(PID.TID 0000.0001)         System time:  0.
(PID.TID 0000.0001)     Wall clock time:  0.00426006317
(PID.TID 0000.0001)          No. starts: 1
(PID.TID 0000.0001)           No. stops: 1
(PID.TID 0000.0001)   Seconds in section "MAIN LOOP           [THE_MAIN_LOOP]":
(PID.TID 0000.0001)           User time:  1.36000002
(PID.TID 0000.0001)         System time:  0.
(PID.TID 0000.0001)     Wall clock time:  1.35910594
(PID.TID 0000.0001)          No. starts: 1
(PID.TID 0000.0001)           No. stops: 1
(PID.TID 0000.0001)   Seconds in section "EXTERNAL_FIELDS_LOAD[THE_MAIN_LOOP]":
(PID.TID 0000.0001)           User time:  0.
(PID.TID 0000.0001)         System time:  0.
(PID.TID 0000.0001)     Wall clock time:  0.00112223625
(PID.TID 0000.0001)          No. starts: 20
(PID.TID 0000.0001)           No. stops: 20
(PID.TID 0000.0001)   Seconds in section "DYNAMICS            [THE_MAIN_LOOP]":
(PID.TID 0000.0001)           User time:  1.00999985
(PID.TID 0000.0001)         System time:  0.
(PID.TID 0000.0001)     Wall clock time:  1.00636899
(PID.TID 0000.0001)          No. starts: 20
(PID.TID 0000.0001)           No. stops: 20
(PID.TID 0000.0001)   Seconds in section "SOLVE_FOR_PRESSURE  [THE_MAIN_LOOP]":
(PID.TID 0000.0001)           User time:  0.090000093
(PID.TID 0000.0001)         System time:  0.
(PID.TID 0000.0001)     Wall clock time:  0.0937564373
(PID.TID 0000.0001)          No. starts: 20
(PID.TID 0000.0001)           No. stops: 20
(PID.TID 0000.0001)   Seconds in section "THE_CORRECTION_STEP [THE_MAIN_LOOP]":
(PID.TID 0000.0001)           User time:  0.0900001079
(PID.TID 0000.0001)         System time:  0.
(PID.TID 0000.0001)     Wall clock time:  0.0875688791
(PID.TID 0000.0001)          No. starts: 20
(PID.TID 0000.0001)           No. stops: 20
(PID.TID 0000.0001)   Seconds in section "BLOCKING_EXCHANGES  [THE_MAIN_LOOP]":
(PID.TID 0000.0001)           User time:  0.0500000268
(PID.TID 0000.0001)         System time:  0.
(PID.TID 0000.0001)     Wall clock time:  0.041867137
(PID.TID 0000.0001)          No. starts: 20
(PID.TID 0000.0001)           No. stops: 20
(PID.TID 0000.0001)   Seconds in section "DO_THE_MODEL_IO     [THE_MAIN_LOOP]":
(PID.TID 0000.0001)           User time:  0.00999999046
(PID.TID 0000.0001)         System time:  0.
(PID.TID 0000.0001)     Wall clock time:  0.0108889341
(PID.TID 0000.0001)          No. starts: 20
(PID.TID 0000.0001)           No. stops: 20
(PID.TID 0000.0001)   Seconds in section "WRITE_CHECKPOINT    [THE_MAIN_LOOP]":
(PID.TID 0000.0001)           User time:  0.00999999046
(PID.TID 0000.0001)         System time:  0.
(PID.TID 0000.0001)     Wall clock time:  0.00114691257
(PID.TID 0000.0001)          No. starts: 20
(PID.TID 0000.0001)           No. stops: 20
(PID.TID 0000.0001)   Seconds in section "WRITE_CHECKPOINT   [THE_MODEL_MAIN]":
(PID.TID 0000.0001)           User time:  0.0299999714
(PID.TID 0000.0001)         System time:  0.
(PID.TID 0000.0001)     Wall clock time:  0.0331460238
(PID.TID 0000.0001)          No. starts: 1
(PID.TID 0000.0001)           No. stops: 1
(PID.TID 0000.0001) // ======================================================
(PID.TID 0000.0001) // Tile <-> Tile communication statistics
(PID.TID 0000.0001) // ======================================================
(PID.TID 0000.0001) // o Tile number: 000001
(PID.TID 0000.0001) //         No. X exchanges =              0
(PID.TID 0000.0001) //            Max. X spins =              0
(PID.TID 0000.0001) //            Min. X spins =     1000000000
(PID.TID 0000.0001) //          Total. X spins =              0
(PID.TID 0000.0001) //            Avg. X spins =       0.00E+00
(PID.TID 0000.0001) //         No. Y exchanges =              0
(PID.TID 0000.0001) //            Max. Y spins =              0
(PID.TID 0000.0001) //            Min. Y spins =     1000000000
(PID.TID 0000.0001) //          Total. Y spins =              0
(PID.TID 0000.0001) //            Avg. Y spins =       0.00E+00
(PID.TID 0000.0001) // o Thread number: 000001
(PID.TID 0000.0001) //            No. barriers =          11520
(PID.TID 0000.0001) //      Max. barrier spins =              1
(PID.TID 0000.0001) //      Min. barrier spins =              1
(PID.TID 0000.0001) //     Total barrier spins =          11520
(PID.TID 0000.0001) //      Avg. barrier spins =       1.00E+00
