(PID.TID 0000.0001) 
(PID.TID 0000.0001) // ======================================================
(PID.TID 0000.0001) //                      MITgcm UV
(PID.TID 0000.0001) //                      =========
(PID.TID 0000.0001) // ======================================================
(PID.TID 0000.0001) // execution environment starting up...
(PID.TID 0000.0001) 
(PID.TID 0000.0001) // MITgcmUV version:  checkpoint57n_post
(PID.TID 0000.0001) // Build user:        jmc
(PID.TID 0000.0001) // Build host:        faulks
(PID.TID 0000.0001) // Build date:        Fri Jul 29 17:33:43 EDT 2005
(PID.TID 0000.0001) 
(PID.TID 0000.0001) // =======================================================
(PID.TID 0000.0001) // Execution Environment parameter file "eedata"
(PID.TID 0000.0001) // =======================================================
(PID.TID 0000.0001) ># Example "eedata" file
(PID.TID 0000.0001) ># Lines beginning "#" are comments
(PID.TID 0000.0001) ># nTx - No. threads per process in X
(PID.TID 0000.0001) ># nTy - No. threads per process in Y
(PID.TID 0000.0001) > &EEPARMS
(PID.TID 0000.0001) > &
(PID.TID 0000.0001) ># Note: Some systems use & as the
(PID.TID 0000.0001) ># namelist terminator. Other systems
(PID.TID 0000.0001) ># use a / character (as shown here).
(PID.TID 0000.0001) 
(PID.TID 0000.0001) // =======================================================
(PID.TID 0000.0001) // Computational Grid Specification ( see files "SIZE.h" )
(PID.TID 0000.0001) //                                  ( and "eedata"       )
(PID.TID 0000.0001) // =======================================================
(PID.TID 0000.0001)      nPx =    1 ; /* No. processes in X */
(PID.TID 0000.0001)      nPy =    1 ; /* No. processes in Y */
(PID.TID 0000.0001)      nSx =    2 ; /* No. tiles in X per process */
(PID.TID 0000.0001)      nSy =    1 ; /* No. tiles in Y per process */
(PID.TID 0000.0001)      sNx =   30 ; /* Tile size in X */
(PID.TID 0000.0001)      sNy =    1 ; /* Tile size in Y */
(PID.TID 0000.0001)      OLx =    3 ; /* Tile overlap distance in X */
(PID.TID 0000.0001)      OLy =    3 ; /* Tile overlap distance in Y */
(PID.TID 0000.0001)      nTx =    1 ; /* No. threads in X per process */
(PID.TID 0000.0001)      nTy =    1 ; /* No. threads in Y per process */
(PID.TID 0000.0001)       Nr =   20 ; /* No. levels in the vertical   */
(PID.TID 0000.0001)       nX =   60 ; /* Total domain size in X ( = nPx*nSx*sNx ) */
(PID.TID 0000.0001)       nY =    1 ; /* Total domain size in Y ( = nPy*nSy*sNy ) */
(PID.TID 0000.0001)   nTiles =    2 ; /* Total no. tiles per process ( = nSx*nSy ) */
(PID.TID 0000.0001)   nProcs =    1 ; /* Total no. processes ( = nPx*nPy ) */
(PID.TID 0000.0001) nThreads =    1 ; /* Total no. threads per process ( = nTx*nTy ) */
(PID.TID 0000.0001) usingMPI =    F ; /* Flag used to control whether MPI is in use */
(PID.TID 0000.0001)                   /*  note: To execute a program with MPI calls */
(PID.TID 0000.0001)                   /*  it must be launched appropriately e.g     */
(PID.TID 0000.0001)                   /*  "mpirun -np 64 ......"                    */
(PID.TID 0000.0001) useCoupler=   F ; /* Flag used to control communications with */
(PID.TID 0000.0001)                   /*  other model components, through a coupler */
(PID.TID 0000.0001) 
(PID.TID 0000.0001) // ======================================================
(PID.TID 0000.0001) // Mapping of tiles to threads
(PID.TID 0000.0001) // ======================================================
(PID.TID 0000.0001) // -o- Thread   1, tiles (   1:   2,   1:   1)
(PID.TID 0000.0001) 
(PID.TID 0000.0001) // ======================================================
(PID.TID 0000.0001) // Tile <-> Tile connectvity table
(PID.TID 0000.0001) // ======================================================
(PID.TID 0000.0001) // Tile number: 000001 (process no. = 000001)
(PID.TID 0000.0001) //        WEST: Tile = 000002, Process = 000001, Comm = put
(PID.TID 0000.0001) //                bi = 000002, bj = 000001
(PID.TID 0000.0001) //        EAST: Tile = 000002, Process = 000001, Comm = put
(PID.TID 0000.0001) //                bi = 000002, bj = 000001
(PID.TID 0000.0001) //       SOUTH: Tile = 000001, Process = 000001, Comm = put
(PID.TID 0000.0001) //                bi = 000001, bj = 000001
(PID.TID 0000.0001) //       NORTH: Tile = 000001, Process = 000001, Comm = put
(PID.TID 0000.0001) //                bi = 000001, bj = 000001
(PID.TID 0000.0001) // Tile number: 000002 (process no. = 000001)
(PID.TID 0000.0001) //        WEST: Tile = 000001, Process = 000001, Comm = put
(PID.TID 0000.0001) //                bi = 000001, bj = 000001
(PID.TID 0000.0001) //        EAST: Tile = 000001, Process = 000001, Comm = put
(PID.TID 0000.0001) //                bi = 000001, bj = 000001
(PID.TID 0000.0001) //       SOUTH: Tile = 000002, Process = 000001, Comm = put
(PID.TID 0000.0001) //                bi = 000002, bj = 000001
(PID.TID 0000.0001) //       NORTH: Tile = 000002, Process = 000001, Comm = put
(PID.TID 0000.0001) //                bi = 000002, bj = 000001
(PID.TID 0000.0001) 
(PID.TID 0000.0001) // =======================================================
(PID.TID 0000.0001) // Model parameter file "data"
(PID.TID 0000.0001) // =======================================================
(PID.TID 0000.0001) ># ====================
(PID.TID 0000.0001) ># | Model parameters |
(PID.TID 0000.0001) ># ====================
(PID.TID 0000.0001) >#
(PID.TID 0000.0001) ># Continuous equation parameters
(PID.TID 0000.0001) > &PARM01
(PID.TID 0000.0001) > Tref = 0.04842, 0.0433231, 0.0382263, 0.0331295,
(PID.TID 0000.0001) >        0.0280326, 0.0229358, 0.0178389, 0.0127421,
(PID.TID 0000.0001) >        0.00764526, 0.00254842, -0.00254842, -0.00764526,
(PID.TID 0000.0001) >       -0.0127421, -0.0178389, -0.0229358, -0.0280326,
(PID.TID 0000.0001) >       -0.0331295, -0.0382263, -0.0433231, -0.04842,
(PID.TID 0000.0001) > sRef= 20*35.,
(PID.TID 0000.0001) > viscAz=1.E-3,
(PID.TID 0000.0001) > viscAh=1.0E-2,
(PID.TID 0000.0001) > no_slip_sides=.FALSE.,
(PID.TID 0000.0001) > no_slip_bottom=.FALSE.,
(PID.TID 0000.0001) > viscA4=0.E12,
(PID.TID 0000.0001) > diffKhT=1.0E-2
(PID.TID 0000.0001) > diffKzT=1.E-3,
(PID.TID 0000.0001) > diffKhS=1.E3,
(PID.TID 0000.0001) > diffKzS=1.E-5,
(PID.TID 0000.0001) > f0=0.0,
(PID.TID 0000.0001) > beta=0.E-11,
(PID.TID 0000.0001) > tAlpha=2.E-4,
(PID.TID 0000.0001) > sBeta =0.E-4,
(PID.TID 0000.0001) > gravity=9.81,
(PID.TID 0000.0001) > gBaro=9.81,
(PID.TID 0000.0001) > rigidLid=.FALSE.,
(PID.TID 0000.0001) > implicitFreeSurface=.TRUE.,
(PID.TID 0000.0001) > eosType='LINEAR',
(PID.TID 0000.0001) > nonHydrostatic=.FALSE.,
(PID.TID 0000.0001) > readBinaryPrec=64,
(PID.TID 0000.0001) > globalFiles=.TRUE.,
(PID.TID 0000.0001) > writeBinaryPrec=64,
(PID.TID 0000.0001) > writeStatePrec=64,
(PID.TID 0000.0001) > saltStepping=.FALSE.,
(PID.TID 0000.0001) > hFacMin=0.2,
(PID.TID 0000.0001) > implicSurfPress=0.5,
(PID.TID 0000.0001) > implicDiv2DFlow=0.5,
(PID.TID 0000.0001) > nonlinFreeSurf=3,
(PID.TID 0000.0001) > hFacInf=0.2,
(PID.TID 0000.0001) > hFacSup=1.8,
(PID.TID 0000.0001) > exactConserv=.TRUE.
(PID.TID 0000.0001) > &
(PID.TID 0000.0001) >
(PID.TID 0000.0001) ># Elliptic solver parameters
(PID.TID 0000.0001) > &PARM02
(PID.TID 0000.0001) > cg2dMaxIters=1000,
(PID.TID 0000.0001) > cg2dTargetResidual=1.E-13,
(PID.TID 0000.0001) > cg3dMaxIters=400,
(PID.TID 0000.0001) > cg3dTargetResidual=1.E-13,
(PID.TID 0000.0001) > &
(PID.TID 0000.0001) >
(PID.TID 0000.0001) ># Time stepping parameters
(PID.TID 0000.0001) > &PARM03
(PID.TID 0000.0001) > niter0=0,
(PID.TID 0000.0001) > nTimeSteps=100,
(PID.TID 0000.0001) > deltaT=500.,
(PID.TID 0000.0001) > abEps=0.1,
(PID.TID 0000.0001) > pChkptFreq=0.0,
(PID.TID 0000.0001) > chkptFreq=0.0,
(PID.TID 0000.0001) > dumpFreq=50000.,
(PID.TID 0000.0001) > monitorFreq=2500.,
(PID.TID 0000.0001) > &
(PID.TID 0000.0001) >
(PID.TID 0000.0001) ># Gridding parameters
(PID.TID 0000.0001) > &PARM04
(PID.TID 0000.0001) > usingCartesianGrid=.TRUE.,
(PID.TID 0000.0001) > usingSphericalPolarGrid=.FALSE.,
(PID.TID 0000.0001) > delXfile='delXvar'
(PID.TID 0000.0001) > delY=5.e3,
(PID.TID 0000.0001) > delZ=20*10.000000,
(PID.TID 0000.0001) > &
(PID.TID 0000.0001) >
(PID.TID 0000.0001) ># Input datasets
(PID.TID 0000.0001) > &PARM05
(PID.TID 0000.0001) > hydrogThetaFile='T.init',
(PID.TID 0000.0001) > bathyFile='topog.slope',
(PID.TID 0000.0001) > &
(PID.TID 0000.0001) 
(PID.TID 0000.0001) S/R INI_PARMS ; starts to read PARM01
(PID.TID 0000.0001) S/R INI_PARMS ; read PARM01 : OK
(PID.TID 0000.0001) S/R INI_PARMS ; starts to read PARM02
(PID.TID 0000.0001) S/R INI_PARMS ; read PARM02 : OK
(PID.TID 0000.0001) S/R INI_PARMS ; starts to read PARM03
(PID.TID 0000.0001) S/R INI_PARMS ; read PARM03 : OK
(PID.TID 0000.0001) S/R INI_PARMS ; starts to read PARM04
(PID.TID 0000.0001) S/R INI_PARMS ; read PARM04 : OK
(PID.TID 0000.0001) S/R INI_PARMS ; starts to read PARM05
(PID.TID 0000.0001) S/R INI_PARMS ; read PARM05 : OK
(PID.TID 0000.0001)  PACKAGES_BOOT: opening data.pkg
(PID.TID 0000.0001)  OPEN_COPY_DATA_FILE: opening file data.pkg
(PID.TID 0000.0001) // =======================================================
(PID.TID 0000.0001) // Parameter file "data.pkg"
(PID.TID 0000.0001) // =======================================================
(PID.TID 0000.0001) ># Packages
(PID.TID 0000.0001) > &PACKAGES
(PID.TID 0000.0001) > useOBCS=.TRUE.,
(PID.TID 0000.0001) > &
(PID.TID 0000.0001) 
(PID.TID 0000.0001)  PACKAGES_BOOT: finished reading data.pkg
(PID.TID 0000.0001)  OBCS_READPARMS: opening data.obcs
(PID.TID 0000.0001)  OPEN_COPY_DATA_FILE: opening file data.obcs
(PID.TID 0000.0001) // =======================================================
(PID.TID 0000.0001) // Parameter file "data.obcs"
(PID.TID 0000.0001) // =======================================================
(PID.TID 0000.0001) ># Open-boundaries
(PID.TID 0000.0001) > &OBCS_PARM01
(PID.TID 0000.0001) > OB_Ieast=-1,
(PID.TID 0000.0001) > OB_Iwest=1,
(PID.TID 0000.0001) > &
(PID.TID 0000.0001) >
(PID.TID 0000.0001) 
 OB Jn = 0 0 0 0 0 0 0 0 0 0 0 0 0 0 0 0 0 0 0 0 0 0 0 0 0 0 0 0 0 0 0 0 0 0 0 0
 0 0 0 0 0 0 0 0 0 0 0 0 0 0 0 0 0 0 0 0 0 0 0 0
 OB Js = 0 0 0 0 0 0 0 0 0 0 0 0 0 0 0 0 0 0 0 0 0 0 0 0 0 0 0 0 0 0 0 0 0 0 0 0
 0 0 0 0 0 0 0 0 0 0 0 0 0 0 0 0 0 0 0 0 0 0 0 0
 OB Ie = 60
 OB Iw = 1
(PID.TID 0000.0001)  OBCS_READPARMS: finished reading data.obcs
(PID.TID 0000.0001) %MON XC_max                       =   1.2972950819672E+04
(PID.TID 0000.0001) %MON XC_min                       =   1.0901639344262E+02
(PID.TID 0000.0001) %MON XC_mean                      =   6.5409836065574E+03
(PID.TID 0000.0001) %MON XC_sd                        =   3.7759141042143E+03
(PID.TID 0000.0001) %MON XG_max                       =   1.2863934426229E+04
(PID.TID 0000.0001) %MON XG_min                       =   5.6843418860808E-14
(PID.TID 0000.0001) %MON XG_mean                      =   6.4319672131147E+03
(PID.TID 0000.0001) %MON XG_sd                        =   3.7759141042143E+03
(PID.TID 0000.0001) %MON DXC_max                      =   2.1803278688525E+02
(PID.TID 0000.0001) %MON DXC_min                      =   2.1803278688525E+02
(PID.TID 0000.0001) %MON DXC_mean                     =   2.1803278688525E+02
(PID.TID 0000.0001) %MON DXC_sd                       =   1.4210854715202E-13
(PID.TID 0000.0001) %MON DXF_max                      =   2.1803278688525E+02
(PID.TID 0000.0001) %MON DXF_min                      =   2.1803278688525E+02
(PID.TID 0000.0001) %MON DXF_mean                     =   2.1803278688525E+02
(PID.TID 0000.0001) %MON DXF_sd                       =   1.4210854715202E-13
(PID.TID 0000.0001) %MON DXG_max                      =   2.1803278688525E+02
(PID.TID 0000.0001) %MON DXG_min                      =   2.1803278688525E+02
(PID.TID 0000.0001) %MON DXG_mean                     =   2.1803278688525E+02
(PID.TID 0000.0001) %MON DXG_sd                       =   1.4210854715202E-13
(PID.TID 0000.0001) %MON DXV_max                      =   2.1803278688525E+02
(PID.TID 0000.0001) %MON DXV_min                      =   2.1803278688525E+02
(PID.TID 0000.0001) %MON DXV_mean                     =   2.1803278688525E+02
(PID.TID 0000.0001) %MON DXV_sd                       =   1.4210854715202E-13
(PID.TID 0000.0001) %MON YC_max                       =   2.5000000000000E+03
(PID.TID 0000.0001) %MON YC_min                       =   2.5000000000000E+03
(PID.TID 0000.0001) %MON YC_mean                      =   2.5000000000000E+03
(PID.TID 0000.0001) %MON YC_sd                        =   0.0000000000000E+00
(PID.TID 0000.0001) %MON YG_max                       =   0.0000000000000E+00
(PID.TID 0000.0001) %MON YG_min                       =   0.0000000000000E+00
(PID.TID 0000.0001) %MON YG_mean                      =   0.0000000000000E+00
(PID.TID 0000.0001) %MON YG_sd                        =   0.0000000000000E+00
(PID.TID 0000.0001) %MON DYC_max                      =   5.0000000000000E+03
(PID.TID 0000.0001) %MON DYC_min                      =   5.0000000000000E+03
(PID.TID 0000.0001) %MON DYC_mean                     =   5.0000000000000E+03
(PID.TID 0000.0001) %MON DYC_sd                       =   0.0000000000000E+00
(PID.TID 0000.0001) %MON DYF_max                      =   5.0000000000000E+03
(PID.TID 0000.0001) %MON DYF_min                      =   5.0000000000000E+03
(PID.TID 0000.0001) %MON DYF_mean                     =   5.0000000000000E+03
(PID.TID 0000.0001) %MON DYF_sd                       =   0.0000000000000E+00
(PID.TID 0000.0001) %MON DYG_max                      =   5.0000000000000E+03
(PID.TID 0000.0001) %MON DYG_min                      =   5.0000000000000E+03
(PID.TID 0000.0001) %MON DYG_mean                     =   5.0000000000000E+03
(PID.TID 0000.0001) %MON DYG_sd                       =   0.0000000000000E+00
(PID.TID 0000.0001) %MON DYU_max                      =   5.0000000000000E+03
(PID.TID 0000.0001) %MON DYU_min                      =   5.0000000000000E+03
(PID.TID 0000.0001) %MON DYU_mean                     =   5.0000000000000E+03
(PID.TID 0000.0001) %MON DYU_sd                       =   0.0000000000000E+00
(PID.TID 0000.0001) %MON RA_max                       =   1.0901639344262E+06
(PID.TID 0000.0001) %MON RA_min                       =   1.0901639344262E+06
(PID.TID 0000.0001) %MON RA_mean                      =   1.0901639344262E+06
(PID.TID 0000.0001) %MON RA_sd                        =   0.0000000000000E+00
(PID.TID 0000.0001) %MON RAW_max                      =   1.0901639344262E+06
(PID.TID 0000.0001) %MON RAW_min                      =   1.0901639344262E+06
(PID.TID 0000.0001) %MON RAW_mean                     =   1.0901639344262E+06
(PID.TID 0000.0001) %MON RAW_sd                       =   0.0000000000000E+00
(PID.TID 0000.0001) %MON RAS_max                      =   1.0901639344262E+06
(PID.TID 0000.0001) %MON RAS_min                      =   1.0901639344262E+06
(PID.TID 0000.0001) %MON RAS_mean                     =   1.0901639344262E+06
(PID.TID 0000.0001) %MON RAS_sd                       =   0.0000000000000E+00
(PID.TID 0000.0001) %MON RAZ_max                      =   1.0901639344262E+06
(PID.TID 0000.0001) %MON RAZ_min                      =   1.0901639344262E+06
(PID.TID 0000.0001) %MON RAZ_mean                     =   1.0901639344262E+06
(PID.TID 0000.0001) %MON RAZ_sd                       =   0.0000000000000E+00
(PID.TID 0000.0001) %MON AngleCS_max                  =   1.0000000000000E+00
(PID.TID 0000.0001) %MON AngleCS_min                  =   1.0000000000000E+00
(PID.TID 0000.0001) %MON AngleCS_mean                 =   1.0000000000000E+00
(PID.TID 0000.0001) %MON AngleCS_sd                   =   0.0000000000000E+00
(PID.TID 0000.0001) %MON AngleSN_max                  =   0.0000000000000E+00
(PID.TID 0000.0001) %MON AngleSN_min                  =   0.0000000000000E+00
(PID.TID 0000.0001) %MON AngleSN_mean                 =   0.0000000000000E+00
(PID.TID 0000.0001) %MON AngleSN_sd                   =   0.0000000000000E+00
(PID.TID 0000.0001)  MDSREADFIELD: opening global file: topog.slope
(PID.TID 0000.0001) // =======================================================
(PID.TID 0000.0001) // Field Model R_low (ini_masks_etc) at iteration          1
(PID.TID 0000.0001) // CMIN =         -2.000000000000000E+02
(PID.TID 0000.0001) // CMAX =         -4.000000000000000E+01
(PID.TID 0000.0001) // CINT =          5.925925925925926E+00
(PID.TID 0000.0001) // SYMBOLS (CMIN->CMAX): -abcdefghijklmnopqrstuvwxyz+
(PID.TID 0000.0001) //                  0.0: .
(PID.TID 0000.0001) // RANGE I (Lo:Hi:Step):(  -2:  63:   1)
(PID.TID 0000.0001) // RANGE J (Lo:Hi:Step):(   4:  -2:  -1)
(PID.TID 0000.0001) // RANGE K (Lo:Hi:Step):(   1:   1:   1)
(PID.TID 0000.0001) // =======================================================
(PID.TID 0000.0001) K =   1
(PID.TID 0000.0001) //                I=7       I=17      I=27      I=31      I=41      I=51      I=61
(PID.TID 0000.0001) // |--J--|**0123456|890123456|890123456|890123890|234567890|234567890|234567890|23
(PID.TID 0000.0001) //      4 ++.-----------abcdefghikkmnopqrstvwxrstvwxyz++++++++++++++++++++++++.---
(PID.TID 0000.0001) //      3 ++.-----------abcdefghikkmnopqrstvwxrstvwxyz++++++++++++++++++++++++.---
(PID.TID 0000.0001) //      2 ++.-----------abcdefghikkmnopqrstvwxrstvwxyz++++++++++++++++++++++++.---
(PID.TID 0000.0001) //      1 ++.-----------abcdefghikkmnopqrstvwxrstvwxyz++++++++++++++++++++++++.---
(PID.TID 0000.0001) //      0 ++.-----------abcdefghikkmnopqrstvwxrstvwxyz++++++++++++++++++++++++.---
(PID.TID 0000.0001) //     -1 ++.-----------abcdefghikkmnopqrstvwxrstvwxyz++++++++++++++++++++++++.---
(PID.TID 0000.0001) //     -2 ++.-----------abcdefghikkmnopqrstvwxrstvwxyz++++++++++++++++++++++++.---
(PID.TID 0000.0001) // =======================================================
(PID.TID 0000.0001) // END OF FIELD                                          =
(PID.TID 0000.0001) // =======================================================
(PID.TID 0000.0001) 
(PID.TID 0000.0001) // =======================================================
(PID.TID 0000.0001) // Field Model Ro_surf (ini_masks_etc) at iteration          1
(PID.TID 0000.0001) // CMIN =          1.000000000000000E+32
(PID.TID 0000.0001) // CMAX =         -1.000000000000000E+32
(PID.TID 0000.0001) // CINT =          0.000000000000000E+00
(PID.TID 0000.0001) // SYMBOLS (CMIN->CMAX): -abcdefghijklmnopqrstuvwxyz+
(PID.TID 0000.0001) //                  0.0: .
(PID.TID 0000.0001) // RANGE I (Lo:Hi:Step):(  -2:  63:   1)
(PID.TID 0000.0001) // RANGE J (Lo:Hi:Step):(   4:  -2:  -1)
(PID.TID 0000.0001) // RANGE K (Lo:Hi:Step):(   1:   1:   1)
(PID.TID 0000.0001) // =======================================================
(PID.TID 0000.0001) // =======================================================
(PID.TID 0000.0001) // END OF FIELD                                          =
(PID.TID 0000.0001) // =======================================================
(PID.TID 0000.0001) 
(PID.TID 0000.0001) // =======================================================
(PID.TID 0000.0001) // Field hFacC at iteration          1
(PID.TID 0000.0001) // CMIN =          1.000000000000000E+00
(PID.TID 0000.0001) // CMAX =          1.000000000000000E+00
(PID.TID 0000.0001) // CINT =          0.000000000000000E+00
(PID.TID 0000.0001) // SYMBOLS (CMIN->CMAX): -abcdefghijklmnopqrstuvwxyz+
(PID.TID 0000.0001) //                  0.0: .
(PID.TID 0000.0001) // RANGE I (Lo:Hi:Step):(  -2:  63:   1)
(PID.TID 0000.0001) // RANGE J (Lo:Hi:Step):(   4:  -2:  -1)
(PID.TID 0000.0001) // RANGE K (Lo:Hi:Step):(   1:   1:   1)
(PID.TID 0000.0001) // =======================================================
(PID.TID 0000.0001) // =======================================================
(PID.TID 0000.0001) // END OF FIELD                                          =
(PID.TID 0000.0001) // =======================================================
(PID.TID 0000.0001) 
(PID.TID 0000.0001) // =======================================================
(PID.TID 0000.0001) // Field hFacW at iteration          1
(PID.TID 0000.0001) // CMIN =          1.000000000000000E+00
(PID.TID 0000.0001) // CMAX =          1.000000000000000E+00
(PID.TID 0000.0001) // CINT =          0.000000000000000E+00
(PID.TID 0000.0001) // SYMBOLS (CMIN->CMAX): -abcdefghijklmnopqrstuvwxyz+
(PID.TID 0000.0001) //                  0.0: .
(PID.TID 0000.0001) // RANGE I (Lo:Hi:Step):(  -2:  63:   1)
(PID.TID 0000.0001) // RANGE J (Lo:Hi:Step):(   4:  -2:  -1)
(PID.TID 0000.0001) // RANGE K (Lo:Hi:Step):(   1:   1:   1)
(PID.TID 0000.0001) // =======================================================
(PID.TID 0000.0001) // =======================================================
(PID.TID 0000.0001) // END OF FIELD                                          =
(PID.TID 0000.0001) // =======================================================
(PID.TID 0000.0001) 
(PID.TID 0000.0001) // =======================================================
(PID.TID 0000.0001) // Field hFacS at iteration          1
(PID.TID 0000.0001) // CMIN =          1.000000000000000E+00
(PID.TID 0000.0001) // CMAX =          1.000000000000000E+00
(PID.TID 0000.0001) // CINT =          0.000000000000000E+00
(PID.TID 0000.0001) // SYMBOLS (CMIN->CMAX): -abcdefghijklmnopqrstuvwxyz+
(PID.TID 0000.0001) //                  0.0: .
(PID.TID 0000.0001) // RANGE I (Lo:Hi:Step):(  -2:  63:   1)
(PID.TID 0000.0001) // RANGE J (Lo:Hi:Step):(   4:  -2:  -1)
(PID.TID 0000.0001) // RANGE K (Lo:Hi:Step):(   1:   1:   1)
(PID.TID 0000.0001) // =======================================================
(PID.TID 0000.0001) // =======================================================
(PID.TID 0000.0001) // END OF FIELD                                          =
(PID.TID 0000.0001) // =======================================================
(PID.TID 0000.0001) 
(PID.TID 0000.0001) 
(PID.TID 0000.0001) // ===================================
(PID.TID 0000.0001) // GAD parameters :
(PID.TID 0000.0001) // ===================================
(PID.TID 0000.0001) tempAdvScheme =   /* Temp. Horiz.Advection scheme selector */
(PID.TID 0000.0001)                       2
(PID.TID 0000.0001)     ;
(PID.TID 0000.0001) tempVertAdvScheme =   /* Temp. Vert. Advection scheme selector */
(PID.TID 0000.0001)                       2
(PID.TID 0000.0001)     ;
(PID.TID 0000.0001) tempMultiDimAdvec =   /* use Muti-Dim Advec method for Temp */
(PID.TID 0000.0001)                   F
(PID.TID 0000.0001)     ;
(PID.TID 0000.0001) tempAdamsBashforth =   /* use Adams-Bashforth time-stepping for Temp */
(PID.TID 0000.0001)                   T
(PID.TID 0000.0001)     ;
(PID.TID 0000.0001) saltAdvScheme =   /* Salt. Horiz.advection scheme selector */
(PID.TID 0000.0001)                       2
(PID.TID 0000.0001)     ;
(PID.TID 0000.0001) saltVertAdvScheme =   /* Salt. Vert. Advection scheme selector */
(PID.TID 0000.0001)                       2
(PID.TID 0000.0001)     ;
(PID.TID 0000.0001) saltMultiDimAdvec =   /* use Muti-Dim Advec method for Salt */
(PID.TID 0000.0001)                   F
(PID.TID 0000.0001)     ;
(PID.TID 0000.0001) saltAdamsBashforth =   /* use Adams-Bashforth time-stepping for Salt */
(PID.TID 0000.0001)                   T
(PID.TID 0000.0001)     ;
(PID.TID 0000.0001) // ===================================
(PID.TID 0000.0001) OBCS_CHECK: #define ALLOW_OBCS
(PID.TID 0000.0001) OBCS_CHECK: #define ALLOW_ORLANSKI
(PID.TID 0000.0001) OBCS_CHECK: OK
(PID.TID 0000.0001) %MON fCori_max                    =   0.0000000000000E+00
(PID.TID 0000.0001) %MON fCori_min                    =   0.0000000000000E+00
(PID.TID 0000.0001) %MON fCori_mean                   =   0.0000000000000E+00
(PID.TID 0000.0001) %MON fCori_sd                     =   0.0000000000000E+00
(PID.TID 0000.0001) %MON fCoriG_max                   =   0.0000000000000E+00
(PID.TID 0000.0001) %MON fCoriG_min                   =   0.0000000000000E+00
(PID.TID 0000.0001) %MON fCoriG_mean                  =   0.0000000000000E+00
(PID.TID 0000.0001) %MON fCoriG_sd                    =   0.0000000000000E+00
(PID.TID 0000.0001) %MON fCoriCos_max                 =   0.0000000000000E+00
(PID.TID 0000.0001) %MON fCoriCos_min                 =   0.0000000000000E+00
(PID.TID 0000.0001) %MON fCoriCos_mean                =   0.0000000000000E+00
(PID.TID 0000.0001) %MON fCoriCos_sd                  =   0.0000000000000E+00
(PID.TID 0000.0001) INI_CG2D: CG2D normalisation factor =  8.7213114754098383E-04
(PID.TID 0000.0001) 
(PID.TID 0000.0001) // CG3D normalisation factor =          0.9172932330827066738218253E-05
(PID.TID 0000.0001) 
(PID.TID 0000.0001) CONFIG_CHECK: OK
(PID.TID 0000.0001) // =======================================================
(PID.TID 0000.0001) // Model configuration
(PID.TID 0000.0001) // =======================================================
(PID.TID 0000.0001) //
(PID.TID 0000.0001) // "Physical" paramters ( PARM01 in namelist )
(PID.TID 0000.0001) //
(PID.TID 0000.0001) buoyancyRelation = OCEANIC
(PID.TID 0000.0001) fluidIsAir  =  /* fluid major constituent is Air */
(PID.TID 0000.0001)                   F
(PID.TID 0000.0001)     ;
(PID.TID 0000.0001) fluidIsWater=  /* fuild major constituent is Water */
(PID.TID 0000.0001)                   T
(PID.TID 0000.0001)     ;
(PID.TID 0000.0001) usingPCoords =  /* use p (or p*) vertical coordinate */
(PID.TID 0000.0001)                   F
(PID.TID 0000.0001)     ;
(PID.TID 0000.0001) usingZCoords =  /* use z (or z*) vertical coordinate */
(PID.TID 0000.0001)                   T
(PID.TID 0000.0001)     ;
(PID.TID 0000.0001) tRef =   /* Reference temperature profile ( oC or oK ) */
(PID.TID 0000.0001)                 4.842000000000000E-02,      /* K =  1 */
(PID.TID 0000.0001)                 4.332310000000000E-02,      /* K =  2 */
(PID.TID 0000.0001)                 3.822630000000000E-02,      /* K =  3 */
(PID.TID 0000.0001)                 3.312950000000000E-02,      /* K =  4 */
(PID.TID 0000.0001)                 2.803260000000000E-02,      /* K =  5 */
(PID.TID 0000.0001)                 2.293580000000000E-02,      /* K =  6 */
(PID.TID 0000.0001)                 1.783890000000000E-02,      /* K =  7 */
(PID.TID 0000.0001)                 1.274210000000000E-02,      /* K =  8 */
(PID.TID 0000.0001)                 7.645260000000000E-03,      /* K =  9 */
(PID.TID 0000.0001)                 2.548420000000000E-03,      /* K = 10 */
(PID.TID 0000.0001)                -2.548420000000000E-03,      /* K = 11 */
(PID.TID 0000.0001)                -7.645260000000000E-03,      /* K = 12 */
(PID.TID 0000.0001)                -1.274210000000000E-02,      /* K = 13 */
(PID.TID 0000.0001)                -1.783890000000000E-02,      /* K = 14 */
(PID.TID 0000.0001)                -2.293580000000000E-02,      /* K = 15 */
(PID.TID 0000.0001)                -2.803260000000000E-02,      /* K = 16 */
(PID.TID 0000.0001)                -3.312950000000000E-02,      /* K = 17 */
(PID.TID 0000.0001)                -3.822630000000000E-02,      /* K = 18 */
(PID.TID 0000.0001)                -4.332310000000000E-02,      /* K = 19 */
(PID.TID 0000.0001)                -4.842000000000000E-02       /* K = 20 */
(PID.TID 0000.0001)     ;
(PID.TID 0000.0001) sRef =   /* Reference salinity profile ( ppt ) */
(PID.TID 0000.0001)    20 @  3.500000000000000E+01              /* K =  1: 20 */
(PID.TID 0000.0001)     ;
(PID.TID 0000.0001) viscAh =   /* Lateral eddy viscosity ( m^2/s ) */
(PID.TID 0000.0001)                 1.000000000000000E-02
(PID.TID 0000.0001)     ;
(PID.TID 0000.0001) viscAhMax =   /* Maximum lateral eddy viscosity ( m^2/s ) */
(PID.TID 0000.0001)                 1.000000000000000E+21
(PID.TID 0000.0001)     ;
(PID.TID 0000.0001) viscAhGrid =   /* Grid dependent lateral eddy viscosity ( non-dim. ) */
(PID.TID 0000.0001)                 0.000000000000000E+00
(PID.TID 0000.0001)     ;
(PID.TID 0000.0001) useFullLeith =   /* Use Full Form of Leith Viscosity on/off flag*/
(PID.TID 0000.0001)                   F
(PID.TID 0000.0001)     ;
(PID.TID 0000.0001) viscC2leith = /* Leith harmonic viscosity factor (on grad(vort),non-dim.) */
(PID.TID 0000.0001)                 0.000000000000000E+00
(PID.TID 0000.0001)     ;
(PID.TID 0000.0001) viscC2leithD = /* Leith harmonic viscosity factor (on grad(div),non-dim.) */
(PID.TID 0000.0001)                 0.000000000000000E+00
(PID.TID 0000.0001)     ;
(PID.TID 0000.0001) viscC2smag =   /* Smagorinsky harmonic viscosity factor (non-dim.) */
(PID.TID 0000.0001)                 0.000000000000000E+00
(PID.TID 0000.0001)     ;
(PID.TID 0000.0001) viscA4 =   /* Lateral biharmonic viscosity ( m^4/s ) */
(PID.TID 0000.0001)                 0.000000000000000E+00
(PID.TID 0000.0001)     ;
(PID.TID 0000.0001) viscA4Max =   /* Maximum biharmonic viscosity ( m^2/s ) */
(PID.TID 0000.0001)                 1.000000000000000E+21
(PID.TID 0000.0001)     ;
(PID.TID 0000.0001) viscA4Grid =   /* Grid dependent biharmonic viscosity ( non-dim. ) */
(PID.TID 0000.0001)                 0.000000000000000E+00
(PID.TID 0000.0001)     ;
(PID.TID 0000.0001) viscC4leith = /* Leith biharm viscosity factor (on grad(vort), non-dim.) */
(PID.TID 0000.0001)                 0.000000000000000E+00
(PID.TID 0000.0001)     ;
(PID.TID 0000.0001) viscC4leithD = /* Leith biharm viscosity factor (on grad(div), non-dim.) */
(PID.TID 0000.0001)                 0.000000000000000E+00
(PID.TID 0000.0001)     ;
(PID.TID 0000.0001) no_slip_sides =  /* Viscous BCs: No-slip sides */
(PID.TID 0000.0001)                   F
(PID.TID 0000.0001)     ;
(PID.TID 0000.0001) viscAr =   /* Vertical eddy viscosity ( units of r^2/s ) */
(PID.TID 0000.0001)                 1.000000000000000E-03
(PID.TID 0000.0001)     ;
(PID.TID 0000.0001) no_slip_bottom =  /* Viscous BCs: No-slip bottom */
(PID.TID 0000.0001)                   F
(PID.TID 0000.0001)     ;
(PID.TID 0000.0001) diffKhT =   /* Laplacian diffusion of heat laterally ( m^2/s ) */
(PID.TID 0000.0001)                 1.000000000000000E-02
(PID.TID 0000.0001)     ;
(PID.TID 0000.0001) diffK4T =   /* Bihaarmonic diffusion of heat laterally ( m^4/s ) */
(PID.TID 0000.0001)                 0.000000000000000E+00
(PID.TID 0000.0001)     ;
(PID.TID 0000.0001) diffKhS =   /* Laplacian diffusion of salt laterally ( m^2/s ) */
(PID.TID 0000.0001)                 1.000000000000000E+03
(PID.TID 0000.0001)     ;
(PID.TID 0000.0001) diffK4S =   /* Bihaarmonic diffusion of salt laterally ( m^4/s ) */
(PID.TID 0000.0001)                 0.000000000000000E+00
(PID.TID 0000.0001)     ;
(PID.TID 0000.0001) diffKrNrT = /* vertical profile of vertical diffusion of Temp ( m^2/s )*/
(PID.TID 0000.0001)    20 @  1.000000000000000E-03              /* K =  1: 20 */
(PID.TID 0000.0001)     ;
(PID.TID 0000.0001) diffKrNrS = /* vertical profile of vertical diffusion of Salt ( m^2/s )*/
(PID.TID 0000.0001)    20 @  1.000000000000000E-05              /* K =  1: 20 */
(PID.TID 0000.0001)     ;
(PID.TID 0000.0001) diffKrBL79surf =   /* Surface diffusion for Bryan and Lewis 1979 ( m^2/s ) */
(PID.TID 0000.0001)                 0.000000000000000E+00
(PID.TID 0000.0001)     ;
(PID.TID 0000.0001) diffKrBL79deep =   /* Deep diffusion for Bryan and Lewis 1979 ( m^2/s ) */
(PID.TID 0000.0001)                 0.000000000000000E+00
(PID.TID 0000.0001)     ;
(PID.TID 0000.0001) diffKrBL79scl =   /* Depth scale for Bryan and Lewis 1979 ( m ) */
(PID.TID 0000.0001)                 2.000000000000000E+02
(PID.TID 0000.0001)     ;
(PID.TID 0000.0001) diffKrBL79Ho =   /* Turning depth for Bryan and Lewis 1979 ( m ) */
(PID.TID 0000.0001)                -2.000000000000000E+03
(PID.TID 0000.0001)     ;
(PID.TID 0000.0001)  Equation of State : eosType = LINEAR
(PID.TID 0000.0001) tAlpha =   /* Linear EOS thermal expansion coefficient ( 1/degree ) */
(PID.TID 0000.0001)                 2.000000000000000E-04
(PID.TID 0000.0001)     ;
(PID.TID 0000.0001) sBeta =   /* Linear EOS haline contraction coefficient ( 1/ppt ) */
(PID.TID 0000.0001)                 0.000000000000000E+00
(PID.TID 0000.0001)     ;
(PID.TID 0000.0001) rhonil =   /* Reference density ( kg/m^3 ) */
(PID.TID 0000.0001)                 9.998000000000000E+02
(PID.TID 0000.0001)     ;
(PID.TID 0000.0001) rhoConst =   /* Reference density ( kg/m^3 ) */
(PID.TID 0000.0001)                 9.998000000000000E+02
(PID.TID 0000.0001)     ;
(PID.TID 0000.0001) rhoConstFresh =   /* Reference density ( kg/m^3 ) */
(PID.TID 0000.0001)                 9.998000000000000E+02
(PID.TID 0000.0001)     ;
(PID.TID 0000.0001) gravity =   /* Gravitational acceleration ( m/s^2 ) */
(PID.TID 0000.0001)                 9.810000000000000E+00
(PID.TID 0000.0001)     ;
(PID.TID 0000.0001) gBaro =   /* Barotropic gravity ( m/s^2 ) */
(PID.TID 0000.0001)                 9.810000000000000E+00
(PID.TID 0000.0001)     ;
(PID.TID 0000.0001) rotationPeriod =   /* Rotation Period ( s ) */
(PID.TID 0000.0001)                 8.640000000000000E+04
(PID.TID 0000.0001)     ;
(PID.TID 0000.0001) omega =   /* Angular velocity ( rad/s ) */
(PID.TID 0000.0001)                 7.272205216643040E-05
(PID.TID 0000.0001)     ;
(PID.TID 0000.0001) f0 =   /* Reference coriolis parameter ( 1/s ) */
(PID.TID 0000.0001)                 0.000000000000000E+00
(PID.TID 0000.0001)     ;
(PID.TID 0000.0001) beta =   /* Beta ( 1/(m.s) ) */
(PID.TID 0000.0001)                 0.000000000000000E+00
(PID.TID 0000.0001)     ;
(PID.TID 0000.0001) freeSurfFac =   /* Implicit free surface factor */
(PID.TID 0000.0001)                 1.000000000000000E+00
(PID.TID 0000.0001)     ;
(PID.TID 0000.0001) implicitFreeSurface =   /* Implicit free surface on/off flag */
(PID.TID 0000.0001)                   T
(PID.TID 0000.0001)     ;
(PID.TID 0000.0001) rigidLid =   /* Rigid lid on/off flag */
(PID.TID 0000.0001)                   F
(PID.TID 0000.0001)     ;
(PID.TID 0000.0001) implicSurfPress =   /* Surface Pressure implicit factor (0-1)*/
(PID.TID 0000.0001)                 5.000000000000000E-01
(PID.TID 0000.0001)     ;
(PID.TID 0000.0001) implicDiv2Dflow =   /* Barot. Flow Div. implicit factor (0-1)*/
(PID.TID 0000.0001)                 5.000000000000000E-01
(PID.TID 0000.0001)     ;
(PID.TID 0000.0001) exactConserv =   /* Exact Volume Conservation on/off flag*/
(PID.TID 0000.0001)                   T
(PID.TID 0000.0001)     ;
(PID.TID 0000.0001) uniformLin_PhiSurf =   /* use uniform Bo_surf on/off flag*/
(PID.TID 0000.0001)                   T
(PID.TID 0000.0001)     ;
(PID.TID 0000.0001) nonlinFreeSurf =   /* Non-linear Free Surf. options (-1,0,1,2,3)*/
(PID.TID 0000.0001)                       3
(PID.TID 0000.0001)     ;
(PID.TID 0000.0001)      -1,0= Off ; 1,2,3= On, 2=+rescale gU,gV, 3=+update cg2d solv.
(PID.TID 0000.0001) hFacInf =   /* lower threshold for hFac (nonlinFreeSurf only)*/
(PID.TID 0000.0001)                 2.000000000000000E-01
(PID.TID 0000.0001)     ;
(PID.TID 0000.0001) hFacSup =   /* upper threshold for hFac (nonlinFreeSurf only)*/
(PID.TID 0000.0001)                 1.800000000000000E+00
(PID.TID 0000.0001)     ;
(PID.TID 0000.0001) select_rStar =   /* r* Coordinate options (not yet implemented)*/
(PID.TID 0000.0001)                       0
(PID.TID 0000.0001)     ;
(PID.TID 0000.0001) useRealFreshWaterFlux =   /* Real Fresh Water Flux on/off flag*/
(PID.TID 0000.0001)                   F
(PID.TID 0000.0001)     ;
(PID.TID 0000.0001) convertFW2Salt = /* convert F.W. Flux to Salt Flux (-1=use local S)(ppt)*/
(PID.TID 0000.0001)                 3.500000000000000E+01
(PID.TID 0000.0001)     ;
(PID.TID 0000.0001) nonHydrostatic =  /* Non-Hydrostatic on/off flag */
(PID.TID 0000.0001)                   F
(PID.TID 0000.0001)     ;
(PID.TID 0000.0001) momStepping =  /* Momentum equation on/off flag */
(PID.TID 0000.0001)                   T
(PID.TID 0000.0001)     ;
(PID.TID 0000.0001) momAdvection =  /* Momentum advection on/off flag */
(PID.TID 0000.0001)                   T
(PID.TID 0000.0001)     ;
(PID.TID 0000.0001) momViscosity =  /* Momentum viscosity on/off flag */
(PID.TID 0000.0001)                   T
(PID.TID 0000.0001)     ;
(PID.TID 0000.0001) momImplVertAdv =/* Momentum implicit vert. advection on/off*/
(PID.TID 0000.0001)                   F
(PID.TID 0000.0001)     ;
(PID.TID 0000.0001) implicitViscosity = /* Implicit viscosity on/off flag */
(PID.TID 0000.0001)                   F
(PID.TID 0000.0001)     ;
(PID.TID 0000.0001) useCoriolis =  /* Coriolis on/off flag */
(PID.TID 0000.0001)                   T
(PID.TID 0000.0001)     ;
(PID.TID 0000.0001) useCDscheme =  /* CD scheme on/off flag */
(PID.TID 0000.0001)                   F
(PID.TID 0000.0001)     ;
(PID.TID 0000.0001) useJamartWetPoints= /* Coriolis WetPoints method flag */
(PID.TID 0000.0001)                   F
(PID.TID 0000.0001)     ;
(PID.TID 0000.0001) useJamartMomAdv= /* V.I. Non-linear terms Jamart flag */
(PID.TID 0000.0001)                   F
(PID.TID 0000.0001)     ;
(PID.TID 0000.0001) SadournyCoriolis= /* Sadourny Coriolis discr. flag */
(PID.TID 0000.0001)                   F
(PID.TID 0000.0001)     ;
(PID.TID 0000.0001) upwindVorticity= /* Upwind bias vorticity flag */
(PID.TID 0000.0001)                   F
(PID.TID 0000.0001)     ;
(PID.TID 0000.0001) useAbsVorticity= /* Work with f+zeta in Coriolis */
(PID.TID 0000.0001)                   F
(PID.TID 0000.0001)     ;
(PID.TID 0000.0001) highOrderVorticity= /* High order interp. of vort. flag */
(PID.TID 0000.0001)                   F
(PID.TID 0000.0001)     ;
(PID.TID 0000.0001) upwindShear= /* Upwind vertical Shear advection flag */
(PID.TID 0000.0001)                   F
(PID.TID 0000.0001)     ;
(PID.TID 0000.0001) momForcing =  /* Momentum forcing on/off flag */
(PID.TID 0000.0001)                   T
(PID.TID 0000.0001)     ;
(PID.TID 0000.0001) momPressureForcing =  /* Momentum pressure term on/off flag */
(PID.TID 0000.0001)                   T
(PID.TID 0000.0001)     ;
(PID.TID 0000.0001) staggerTimeStep =   /* Stagger time stepping on/off flag */
(PID.TID 0000.0001)                   F
(PID.TID 0000.0001)     ;
(PID.TID 0000.0001) multiDimAdvection =   /* enable/disable Multi-Dim Advection */
(PID.TID 0000.0001)                   T
(PID.TID 0000.0001)     ;
(PID.TID 0000.0001) useMultiDimAdvec =   /* Multi-Dim Advection is/is-not used */
(PID.TID 0000.0001)                   F
(PID.TID 0000.0001)     ;
(PID.TID 0000.0001) implicitDiffusion =/* Implicit Diffusion on/off flag */
(PID.TID 0000.0001)                   F
(PID.TID 0000.0001)     ;
(PID.TID 0000.0001) tempStepping =  /* Temperature equation on/off flag */
(PID.TID 0000.0001)                   T
(PID.TID 0000.0001)     ;
(PID.TID 0000.0001) tempAdvection=  /* Temperature advection on/off flag */
(PID.TID 0000.0001)                   T
(PID.TID 0000.0001)     ;
(PID.TID 0000.0001) tempImplVertAdv =/* Temp. implicit vert. advection on/off */
(PID.TID 0000.0001)                   F
(PID.TID 0000.0001)     ;
(PID.TID 0000.0001) tempForcing  =  /* Temperature forcing on/off flag */
(PID.TID 0000.0001)                   T
(PID.TID 0000.0001)     ;
(PID.TID 0000.0001) saltStepping =  /* Salinity equation on/off flag */
(PID.TID 0000.0001)                   F
(PID.TID 0000.0001)     ;
(PID.TID 0000.0001) saltAdvection=  /* Salinity advection on/off flag */
(PID.TID 0000.0001)                   F
(PID.TID 0000.0001)     ;
(PID.TID 0000.0001) saltImplVertAdv =/* Sali. implicit vert. advection on/off */
(PID.TID 0000.0001)                   F
(PID.TID 0000.0001)     ;
(PID.TID 0000.0001) saltForcing  =  /* Salinity forcing on/off flag */
(PID.TID 0000.0001)                   F
(PID.TID 0000.0001)     ;
(PID.TID 0000.0001)  debugMode  =  /* Debug Mode on/off flag */
(PID.TID 0000.0001)                   F
(PID.TID 0000.0001)     ;
(PID.TID 0000.0001)    debLevA  =  /* 1rst level of debugging */
(PID.TID 0000.0001)                       1
(PID.TID 0000.0001)     ;
(PID.TID 0000.0001)    debLevB  =  /* 2nd  level of debugging */
(PID.TID 0000.0001)                       2
(PID.TID 0000.0001)     ;
(PID.TID 0000.0001)  debugLevel =  /* select debugging level */
(PID.TID 0000.0001)                       1
(PID.TID 0000.0001)     ;
(PID.TID 0000.0001) //
(PID.TID 0000.0001) // Elliptic solver(s) paramters ( PARM02 in namelist )
(PID.TID 0000.0001) //
(PID.TID 0000.0001) cg2dMaxIters =   /* Upper limit on 2d con. grad iterations  */
(PID.TID 0000.0001)                    1000
(PID.TID 0000.0001)     ;
(PID.TID 0000.0001) cg2dChkResFreq =   /* 2d con. grad convergence test frequency */
(PID.TID 0000.0001)                       1
(PID.TID 0000.0001)     ;
(PID.TID 0000.0001) cg2dTargetResidual =   /* 2d con. grad target residual  */
(PID.TID 0000.0001)                 1.000000000000000E-13
(PID.TID 0000.0001)     ;
(PID.TID 0000.0001) cg2dTargetResWunit =   /* CG2d target residual [W units] */
(PID.TID 0000.0001)                -1.000000000000000E+00
(PID.TID 0000.0001)     ;
(PID.TID 0000.0001) cg2dPreCondFreq =   /* Freq. for updating cg2d preconditioner */
(PID.TID 0000.0001)                       1
(PID.TID 0000.0001)     ;
(PID.TID 0000.0001) //
(PID.TID 0000.0001) // Time stepping paramters ( PARM03 in namelist )
(PID.TID 0000.0001) //
(PID.TID 0000.0001) nIter0 =   /* Run starting timestep number  */
(PID.TID 0000.0001)                       0
(PID.TID 0000.0001)     ;
(PID.TID 0000.0001) nTimeSteps =   /* Number of timesteps */
(PID.TID 0000.0001)                     100
(PID.TID 0000.0001)     ;
(PID.TID 0000.0001) deltatTmom =   /* Momentum equation timestep ( s ) */
(PID.TID 0000.0001)                 5.000000000000000E+02
(PID.TID 0000.0001)     ;
(PID.TID 0000.0001) deltaTfreesurf =   /* FreeSurface equation timestep ( s ) */
(PID.TID 0000.0001)                 5.000000000000000E+02
(PID.TID 0000.0001)     ;
(PID.TID 0000.0001) dTtracerLev =   /* Tracer equation timestep ( s ) */
(PID.TID 0000.0001)    20 @  5.000000000000000E+02              /* K =  1: 20 */
(PID.TID 0000.0001)     ;
(PID.TID 0000.0001) deltatTClock  =   /* Model clock timestep ( s ) */
(PID.TID 0000.0001)                 5.000000000000000E+02
(PID.TID 0000.0001)     ;
(PID.TID 0000.0001) cAdjFreq =   /* Convective adjustment interval ( s ) */
(PID.TID 0000.0001)                 0.000000000000000E+00
(PID.TID 0000.0001)     ;
(PID.TID 0000.0001) forcing_In_AB =   /* put T,S Forcing in Adams-Bash. stepping */
(PID.TID 0000.0001)                   T
(PID.TID 0000.0001)     ;
(PID.TID 0000.0001) abEps =   /* Adams-Bashforth-2 stabilizing weight */
(PID.TID 0000.0001)                 1.000000000000000E-01
(PID.TID 0000.0001)     ;
(PID.TID 0000.0001) baseTime =   /* Model base time ( s ). */
(PID.TID 0000.0001)                 0.000000000000000E+00
(PID.TID 0000.0001)     ;
(PID.TID 0000.0001) startTime =   /* Run start time ( s ). */
(PID.TID 0000.0001)                 0.000000000000000E+00
(PID.TID 0000.0001)     ;
(PID.TID 0000.0001) endTime =   /* Integration ending time ( s ). */
(PID.TID 0000.0001)                 5.000000000000000E+04
(PID.TID 0000.0001)     ;
(PID.TID 0000.0001) pChkPtFreq =   /* Permanent restart/checkpoint file interval ( s ). */
(PID.TID 0000.0001)                 0.000000000000000E+00
(PID.TID 0000.0001)     ;
(PID.TID 0000.0001) chkPtFreq =   /* Rolling restart/checkpoint file interval ( s ). */
(PID.TID 0000.0001)                 0.000000000000000E+00
(PID.TID 0000.0001)     ;
(PID.TID 0000.0001) pickup_write_mdsio =   /* Model IO flag. */
(PID.TID 0000.0001)                   T
(PID.TID 0000.0001)     ;
(PID.TID 0000.0001) pickup_read_mdsio =   /* Model IO flag. */
(PID.TID 0000.0001)                   T
(PID.TID 0000.0001)     ;
(PID.TID 0000.0001) pickup_write_immed =   /* Model IO flag. */
(PID.TID 0000.0001)                   F
(PID.TID 0000.0001)     ;
(PID.TID 0000.0001) dumpFreq =   /* Model state write out interval ( s ). */
(PID.TID 0000.0001)                 5.000000000000000E+04
(PID.TID 0000.0001)     ;
(PID.TID 0000.0001) snapshot_mdsio =   /* Model IO flag. */
(PID.TID 0000.0001)                   T
(PID.TID 0000.0001)     ;
(PID.TID 0000.0001) monitorFreq =   /* Monitor output interval ( s ). */
(PID.TID 0000.0001)                 2.500000000000000E+03
(PID.TID 0000.0001)     ;
(PID.TID 0000.0001) monitor_stdio =   /* Model IO flag. */
(PID.TID 0000.0001)                   T
(PID.TID 0000.0001)     ;
(PID.TID 0000.0001) externForcingPeriod =   /* forcing period (s) */
(PID.TID 0000.0001)                 0.000000000000000E+00
(PID.TID 0000.0001)     ;
(PID.TID 0000.0001) externForcingCycle =   /* period of the cyle (s). */
(PID.TID 0000.0001)                 0.000000000000000E+00
(PID.TID 0000.0001)     ;
(PID.TID 0000.0001) tauThetaClimRelax =   /* relaxation time scale (s) */
(PID.TID 0000.0001)                 0.000000000000000E+00
(PID.TID 0000.0001)     ;
(PID.TID 0000.0001) tauSaltClimRelax =   /* relaxation time scale (s) */
(PID.TID 0000.0001)                 0.000000000000000E+00
(PID.TID 0000.0001)     ;
(PID.TID 0000.0001) latBandClimRelax =   /* max. Lat. where relaxation */
(PID.TID 0000.0001)                 5.000000000000000E+03
(PID.TID 0000.0001)     ;
(PID.TID 0000.0001) //
(PID.TID 0000.0001) // Gridding paramters ( PARM04 in namelist )
(PID.TID 0000.0001) //
(PID.TID 0000.0001) usingCartesianGrid =   /* Cartesian coordinates flag ( True / False ) */
(PID.TID 0000.0001)                   T
(PID.TID 0000.0001)     ;
(PID.TID 0000.0001) usingSphericalPolarGrid =   /* Spherical coordinates flag ( True / False ) */
(PID.TID 0000.0001)                   F
(PID.TID 0000.0001)     ;
(PID.TID 0000.0001) usingCylindricalGrid =   /* Spherical coordinates flag ( True / False ) */
(PID.TID 0000.0001)                   F
(PID.TID 0000.0001)     ;
(PID.TID 0000.0001) Ro_SeaLevel =   /* r(1) ( units of r ) */
(PID.TID 0000.0001)                 0.000000000000000E+00
(PID.TID 0000.0001)     ;
(PID.TID 0000.0001) rkSign =   /* index orientation relative to vertical coordinate */
(PID.TID 0000.0001)                -1.000000000000000E+00
(PID.TID 0000.0001)     ;
(PID.TID 0000.0001) horiVertRatio =   /* Ratio on units : Horiz - Vertical */
(PID.TID 0000.0001)                 1.000000000000000E+00
(PID.TID 0000.0001)     ;
(PID.TID 0000.0001) drC =   /* C spacing ( units of r ) */
(PID.TID 0000.0001)                 5.000000000000000E+00,      /* K =  1 */
(PID.TID 0000.0001)    19 @  1.000000000000000E+01              /* K =  2: 20 */
(PID.TID 0000.0001)     ;
(PID.TID 0000.0001) drF =   /* W spacing ( units of r ) */
(PID.TID 0000.0001)    20 @  1.000000000000000E+01              /* K =  1: 20 */
(PID.TID 0000.0001)     ;
(PID.TID 0000.0001) delX =   /* U spacing ( m - cartesian, degrees - spherical ) */
(PID.TID 0000.0001)    60 @  2.180327868852459E+02              /* I =  1: 60 */
(PID.TID 0000.0001)     ;
(PID.TID 0000.0001) delY =   /* V spacing ( m - cartesian, degrees - spherical ) */
(PID.TID 0000.0001)                 5.000000000000000E+03       /* J =  1 */
(PID.TID 0000.0001)     ;
(PID.TID 0000.0001) phiMin =    /* South edge (ignored - cartesian, degrees - spherical ) */
(PID.TID 0000.0001)                 0.000000000000000E+00
(PID.TID 0000.0001)     ;
(PID.TID 0000.0001) thetaMin =    /* West edge ( ignored - cartesian, degrees - spherical ) */
(PID.TID 0000.0001)                 0.000000000000000E+00
(PID.TID 0000.0001)     ;
(PID.TID 0000.0001) rSphere =    /* Radius ( ignored - cartesian, m - spherical ) */
(PID.TID 0000.0001)                 6.370000000000000E+06
(PID.TID 0000.0001)     ;
(PID.TID 0000.0001) xcoord =   /* P-point X coord ( m - cartesian, degrees - spherical ) */
(PID.TID 0000.0001)                 1.090163934426230E+02,      /* I =  1 */
(PID.TID 0000.0001)                 3.270491803278690E+02,      /* I =  2 */
(PID.TID 0000.0001)                 5.450819672131148E+02,      /* I =  3 */
(PID.TID 0000.0001)                 7.631147540983607E+02,      /* I =  4 */
(PID.TID 0000.0001)                 9.811475409836066E+02,      /* I =  5 */
(PID.TID 0000.0001)                 1.199180327868853E+03,      /* I =  6 */
(PID.TID 0000.0001)                 1.417213114754099E+03,      /* I =  7 */
(PID.TID 0000.0001)                 1.635245901639345E+03,      /* I =  8 */
(PID.TID 0000.0001)                 1.853278688524591E+03,      /* I =  9 */
(PID.TID 0000.0001)                 2.071311475409836E+03,      /* I = 10 */
(PID.TID 0000.0001)                 2.289344262295082E+03,      /* I = 11 */
(PID.TID 0000.0001)                 2.507377049180328E+03,      /* I = 12 */
(PID.TID 0000.0001)                 2.725409836065574E+03,      /* I = 13 */
(PID.TID 0000.0001)                 2.943442622950820E+03,      /* I = 14 */
(PID.TID 0000.0001)                 3.161475409836066E+03,      /* I = 15 */
(PID.TID 0000.0001)                 3.379508196721312E+03,      /* I = 16 */
(PID.TID 0000.0001)                 3.597540983606558E+03,      /* I = 17 */
(PID.TID 0000.0001)                 3.815573770491804E+03,      /* I = 18 */
(PID.TID 0000.0001)                 4.033606557377050E+03,      /* I = 19 */
(PID.TID 0000.0001)                 4.251639344262296E+03,      /* I = 20 */
(PID.TID 0000.0001)                 4.469672131147541E+03,      /* I = 21 */
(PID.TID 0000.0001)                 4.687704918032787E+03,      /* I = 22 */
(PID.TID 0000.0001)                 4.905737704918032E+03,      /* I = 23 */
(PID.TID 0000.0001)                 5.123770491803278E+03,      /* I = 24 */
(PID.TID 0000.0001)                 5.341803278688523E+03,      /* I = 25 */
(PID.TID 0000.0001)                 5.559836065573769E+03,      /* I = 26 */
(PID.TID 0000.0001)                 5.777868852459014E+03,      /* I = 27 */
(PID.TID 0000.0001)                 5.995901639344260E+03,      /* I = 28 */
(PID.TID 0000.0001)                 6.213934426229505E+03,      /* I = 29 */
(PID.TID 0000.0001)                 6.431967213114751E+03,      /* I = 30 */
(PID.TID 0000.0001)                 6.649999999999996E+03,      /* I = 31 */
(PID.TID 0000.0001)                 6.868032786885242E+03,      /* I = 32 */
(PID.TID 0000.0001)                 7.086065573770487E+03,      /* I = 33 */
(PID.TID 0000.0001)                 7.304098360655733E+03,      /* I = 34 */
(PID.TID 0000.0001)                 7.522131147540978E+03,      /* I = 35 */
(PID.TID 0000.0001)                 7.740163934426224E+03,      /* I = 36 */
(PID.TID 0000.0001)                 7.958196721311469E+03,      /* I = 37 */
(PID.TID 0000.0001)                 8.176229508196715E+03,      /* I = 38 */
(PID.TID 0000.0001)                 8.394262295081960E+03,      /* I = 39 */
(PID.TID 0000.0001)                 8.612295081967208E+03,      /* I = 40 */
(PID.TID 0000.0001)                 8.830327868852452E+03,      /* I = 41 */
(PID.TID 0000.0001)                 9.048360655737699E+03,      /* I = 42 */
(PID.TID 0000.0001)                 9.266393442622943E+03,      /* I = 43 */
(PID.TID 0000.0001)                 9.484426229508190E+03,      /* I = 44 */
(PID.TID 0000.0001)                 9.702459016393434E+03,      /* I = 45 */
(PID.TID 0000.0001)                 9.920491803278681E+03,      /* I = 46 */
(PID.TID 0000.0001)                 1.013852459016392E+04,      /* I = 47 */
(PID.TID 0000.0001)                 1.035655737704917E+04,      /* I = 48 */
(PID.TID 0000.0001)                 1.057459016393442E+04,      /* I = 49 */
(PID.TID 0000.0001)                 1.079262295081966E+04,      /* I = 50 */
(PID.TID 0000.0001)                 1.101065573770491E+04,      /* I = 51 */
(PID.TID 0000.0001)                 1.122868852459015E+04,      /* I = 52 */
(PID.TID 0000.0001)                 1.144672131147540E+04,      /* I = 53 */
(PID.TID 0000.0001)                 1.166475409836065E+04,      /* I = 54 */
(PID.TID 0000.0001)                 1.188278688524589E+04,      /* I = 55 */
(PID.TID 0000.0001)                 1.210081967213113E+04,      /* I = 56 */
(PID.TID 0000.0001)                 1.231885245901638E+04,      /* I = 57 */
(PID.TID 0000.0001)                 1.253688524590163E+04,      /* I = 58 */
(PID.TID 0000.0001)                 1.275491803278687E+04,      /* I = 59 */
(PID.TID 0000.0001)                 1.297295081967212E+04       /* I = 60 */
(PID.TID 0000.0001)     ;
(PID.TID 0000.0001) ycoord =   /* P-point Y coord ( m - cartesian, degrees - spherical ) */
(PID.TID 0000.0001)                 2.500000000000000E+03       /* J =  1 */
(PID.TID 0000.0001)     ;
(PID.TID 0000.0001) rcoord =   /* P-point R coordinate (  units of r ) */
(PID.TID 0000.0001)                -5.000000000000000E+00,      /* K =  1 */
(PID.TID 0000.0001)                -1.500000000000000E+01,      /* K =  2 */
(PID.TID 0000.0001)                -2.500000000000000E+01,      /* K =  3 */
(PID.TID 0000.0001)                -3.500000000000000E+01,      /* K =  4 */
(PID.TID 0000.0001)                -4.500000000000000E+01,      /* K =  5 */
(PID.TID 0000.0001)                -5.500000000000000E+01,      /* K =  6 */
(PID.TID 0000.0001)                -6.500000000000000E+01,      /* K =  7 */
(PID.TID 0000.0001)                -7.500000000000000E+01,      /* K =  8 */
(PID.TID 0000.0001)                -8.500000000000000E+01,      /* K =  9 */
(PID.TID 0000.0001)                -9.500000000000000E+01,      /* K = 10 */
(PID.TID 0000.0001)                -1.050000000000000E+02,      /* K = 11 */
(PID.TID 0000.0001)                -1.150000000000000E+02,      /* K = 12 */
(PID.TID 0000.0001)                -1.250000000000000E+02,      /* K = 13 */
(PID.TID 0000.0001)                -1.350000000000000E+02,      /* K = 14 */
(PID.TID 0000.0001)                -1.450000000000000E+02,      /* K = 15 */
(PID.TID 0000.0001)                -1.550000000000000E+02,      /* K = 16 */
(PID.TID 0000.0001)                -1.650000000000000E+02,      /* K = 17 */
(PID.TID 0000.0001)                -1.750000000000000E+02,      /* K = 18 */
(PID.TID 0000.0001)                -1.850000000000000E+02,      /* K = 19 */
(PID.TID 0000.0001)                -1.950000000000000E+02       /* K = 20 */
(PID.TID 0000.0001)     ;
(PID.TID 0000.0001) rF =   /* W-Interf. R coordinate (  units of r ) */
(PID.TID 0000.0001)                 0.000000000000000E+00,      /* K =  1 */
(PID.TID 0000.0001)                -1.000000000000000E+01,      /* K =  2 */
(PID.TID 0000.0001)                -2.000000000000000E+01,      /* K =  3 */
(PID.TID 0000.0001)                -3.000000000000000E+01,      /* K =  4 */
(PID.TID 0000.0001)                -4.000000000000000E+01,      /* K =  5 */
(PID.TID 0000.0001)                -5.000000000000000E+01,      /* K =  6 */
(PID.TID 0000.0001)                -6.000000000000000E+01,      /* K =  7 */
(PID.TID 0000.0001)                -7.000000000000000E+01,      /* K =  8 */
(PID.TID 0000.0001)                -8.000000000000000E+01,      /* K =  9 */
(PID.TID 0000.0001)                -9.000000000000000E+01,      /* K = 10 */
(PID.TID 0000.0001)                -1.000000000000000E+02,      /* K = 11 */
(PID.TID 0000.0001)                -1.100000000000000E+02,      /* K = 12 */
(PID.TID 0000.0001)                -1.200000000000000E+02,      /* K = 13 */
(PID.TID 0000.0001)                -1.300000000000000E+02,      /* K = 14 */
(PID.TID 0000.0001)                -1.400000000000000E+02,      /* K = 15 */
(PID.TID 0000.0001)                -1.500000000000000E+02,      /* K = 16 */
(PID.TID 0000.0001)                -1.600000000000000E+02,      /* K = 17 */
(PID.TID 0000.0001)                -1.700000000000000E+02,      /* K = 18 */
(PID.TID 0000.0001)                -1.800000000000000E+02,      /* K = 19 */
(PID.TID 0000.0001)                -1.900000000000000E+02,      /* K = 20 */
(PID.TID 0000.0001)                -2.000000000000000E+02       /* K = 21 */
(PID.TID 0000.0001)     ;
(PID.TID 0000.0001) dxF =  /* dxF(:,1,:,1) ( m - cartesian, degrees - spherical ) */
(PID.TID 0000.0001)    60 @  2.180327868852459E+02              /* I =  1: 60 */
(PID.TID 0000.0001)     ;
(PID.TID 0000.0001) dxF =  /* dxF(1,:,1,:) ( m - cartesian, degrees - spherical ) */
(PID.TID 0000.0001)                 2.180327868852459E+02       /* J =  1 */
(PID.TID 0000.0001)     ;
(PID.TID 0000.0001) dyF =  /* dyF(:,1,:,1) ( m - cartesian, degrees - spherical ) */
(PID.TID 0000.0001)    60 @  5.000000000000000E+03              /* I =  1: 60 */
(PID.TID 0000.0001)     ;
(PID.TID 0000.0001) dyF =  /* dyF(1,:,1,:) ( m - cartesian, degrees - spherical ) */
(PID.TID 0000.0001)                 5.000000000000000E+03       /* J =  1 */
(PID.TID 0000.0001)     ;
(PID.TID 0000.0001) dxG =  /* dxG(:,1,:,1) ( m - cartesian, degrees - spherical ) */
(PID.TID 0000.0001)    60 @  2.180327868852459E+02              /* I =  1: 60 */
(PID.TID 0000.0001)     ;
(PID.TID 0000.0001) dxG =  /* dxG(1,:,1,:) ( m - cartesian, degrees - spherical ) */
(PID.TID 0000.0001)                 2.180327868852459E+02       /* J =  1 */
(PID.TID 0000.0001)     ;
(PID.TID 0000.0001) dyG =  /* dyG(:,1,:,1) ( m - cartesian, degrees - spherical ) */
(PID.TID 0000.0001)    60 @  5.000000000000000E+03              /* I =  1: 60 */
(PID.TID 0000.0001)     ;
(PID.TID 0000.0001) dyG =  /* dyG(1,:,1,:) ( m - cartesian, degrees - spherical ) */
(PID.TID 0000.0001)                 5.000000000000000E+03       /* J =  1 */
(PID.TID 0000.0001)     ;
(PID.TID 0000.0001) dxC =  /* dxC(:,1,:,1) ( m - cartesian, degrees - spherical ) */
(PID.TID 0000.0001)    60 @  2.180327868852459E+02              /* I =  1: 60 */
(PID.TID 0000.0001)     ;
(PID.TID 0000.0001) dxC =  /* dxC(1,:,1,:) ( m - cartesian, degrees - spherical ) */
(PID.TID 0000.0001)                 2.180327868852459E+02       /* J =  1 */
(PID.TID 0000.0001)     ;
(PID.TID 0000.0001) dyC =  /* dyC(:,1,:,1) ( m - cartesian, degrees - spherical ) */
(PID.TID 0000.0001)    60 @  5.000000000000000E+03              /* I =  1: 60 */
(PID.TID 0000.0001)     ;
(PID.TID 0000.0001) dyC =  /* dyC(1,:,1,:) ( m - cartesian, degrees - spherical ) */
(PID.TID 0000.0001)                 5.000000000000000E+03       /* J =  1 */
(PID.TID 0000.0001)     ;
(PID.TID 0000.0001) dxV =  /* dxV(:,1,:,1) ( m - cartesian, degrees - spherical ) */
(PID.TID 0000.0001)    60 @  2.180327868852459E+02              /* I =  1: 60 */
(PID.TID 0000.0001)     ;
(PID.TID 0000.0001) dxV =  /* dxV(1,:,1,:) ( m - cartesian, degrees - spherical ) */
(PID.TID 0000.0001)                 2.180327868852459E+02       /* J =  1 */
(PID.TID 0000.0001)     ;
(PID.TID 0000.0001) dyU =  /* dyU(:,1,:,1) ( m - cartesian, degrees - spherical ) */
(PID.TID 0000.0001)    60 @  5.000000000000000E+03              /* I =  1: 60 */
(PID.TID 0000.0001)     ;
(PID.TID 0000.0001) dyU =  /* dyU(1,:,1,:) ( m - cartesian, degrees - spherical ) */
(PID.TID 0000.0001)                 5.000000000000000E+03       /* J =  1 */
(PID.TID 0000.0001)     ;
(PID.TID 0000.0001) rA =  /* rA(:,1,:,1) ( m - cartesian, degrees - spherical ) */
(PID.TID 0000.0001)    60 @  1.090163934426229E+06              /* I =  1: 60 */
(PID.TID 0000.0001)     ;
(PID.TID 0000.0001) rA =  /* rA(1,:,1,:) ( m - cartesian, degrees - spherical ) */
(PID.TID 0000.0001)                 1.090163934426229E+06       /* J =  1 */
(PID.TID 0000.0001)     ;
(PID.TID 0000.0001) rAw =  /* rAw(:,1,:,1) ( m - cartesian, degrees - spherical ) */
(PID.TID 0000.0001)    60 @  1.090163934426229E+06              /* I =  1: 60 */
(PID.TID 0000.0001)     ;
(PID.TID 0000.0001) rAw =  /* rAw(1,:,1,:) ( m - cartesian, degrees - spherical ) */
(PID.TID 0000.0001)                 1.090163934426229E+06       /* J =  1 */
(PID.TID 0000.0001)     ;
(PID.TID 0000.0001) rAs =  /* rAs(:,1,:,1) ( m - cartesian, degrees - spherical ) */
(PID.TID 0000.0001)    60 @  1.090163934426229E+06              /* I =  1: 60 */
(PID.TID 0000.0001)     ;
(PID.TID 0000.0001) rAs =  /* rAs(1,:,1,:) ( m - cartesian, degrees - spherical ) */
(PID.TID 0000.0001)                 1.090163934426229E+06       /* J =  1 */
(PID.TID 0000.0001)     ;
(PID.TID 0000.0001) 
(PID.TID 0000.0001)  MDSREADFIELD: opening global file: T.init
(PID.TID 0000.0001) // =======================================================
(PID.TID 0000.0001) // Field Initial Temperature at iteration          1
(PID.TID 0000.0001) // CMIN =          4.841997961264016E-02
(PID.TID 0000.0001) // CMAX =          4.841997961264016E-02
(PID.TID 0000.0001) // CINT =          0.000000000000000E+00
(PID.TID 0000.0001) // SYMBOLS (CMIN->CMAX): -abcdefghijklmnopqrstuvwxyz+
(PID.TID 0000.0001) //                  0.0: .
(PID.TID 0000.0001) // RANGE I (Lo:Hi:Step):(   1:  60:   1)
(PID.TID 0000.0001) // RANGE J (Lo:Hi:Step):(   1:   1:  -1)
(PID.TID 0000.0001) // RANGE K (Lo:Hi:Step):(   1:   1:   1)
(PID.TID 0000.0001) // =======================================================
(PID.TID 0000.0001) // =======================================================
(PID.TID 0000.0001) // END OF FIELD                                          =
(PID.TID 0000.0001) // =======================================================
(PID.TID 0000.0001) 
(PID.TID 0000.0001) // =======================================================
(PID.TID 0000.0001) // Field Initial Salinity at iteration          1
(PID.TID 0000.0001) // CMIN =          3.500000000000000E+01
(PID.TID 0000.0001) // CMAX =          3.500000000000000E+01
(PID.TID 0000.0001) // CINT =          0.000000000000000E+00
(PID.TID 0000.0001) // SYMBOLS (CMIN->CMAX): -abcdefghijklmnopqrstuvwxyz+
(PID.TID 0000.0001) //                  0.0: .
(PID.TID 0000.0001) // RANGE I (Lo:Hi:Step):(   1:  60:   1)
(PID.TID 0000.0001) // RANGE J (Lo:Hi:Step):(   1:   1:  -1)
(PID.TID 0000.0001) // RANGE K (Lo:Hi:Step):(   1:   1:   1)
(PID.TID 0000.0001) // =======================================================
(PID.TID 0000.0001) // =======================================================
(PID.TID 0000.0001) // END OF FIELD                                          =
(PID.TID 0000.0001) // =======================================================
(PID.TID 0000.0001) 
(PID.TID 0000.0001) Start initial hydrostatic pressure computation
(PID.TID 0000.0001) Pressure is predetermined for buoyancyRelation OCEANIC
(PID.TID 0000.0001) 
(PID.TID 0000.0001) // =======================================================
(PID.TID 0000.0001) // Model current state
(PID.TID 0000.0001) // =======================================================
(PID.TID 0000.0001) 
(PID.TID 0000.0001) // =======================================================
(PID.TID 0000.0001) // Begin MONITOR dynamic field statistics
(PID.TID 0000.0001) // =======================================================
(PID.TID 0000.0001) %MON time_tsnumber                =                     0
(PID.TID 0000.0001) %MON time_secondsf                =   0.0000000000000E+00
(PID.TID 0000.0001) %MON dynstat_eta_max              =   0.0000000000000E+00
(PID.TID 0000.0001) %MON dynstat_eta_min              =   0.0000000000000E+00
(PID.TID 0000.0001) %MON dynstat_eta_mean             =   0.0000000000000E+00
(PID.TID 0000.0001) %MON dynstat_eta_sd               =   0.0000000000000E+00
(PID.TID 0000.0001) %MON dynstat_eta_del2             =   0.0000000000000E+00
(PID.TID 0000.0001) %MON dynstat_uvel_max             =   0.0000000000000E+00
(PID.TID 0000.0001) %MON dynstat_uvel_min             =   0.0000000000000E+00
(PID.TID 0000.0001) %MON dynstat_uvel_mean            =   0.0000000000000E+00
(PID.TID 0000.0001) %MON dynstat_uvel_sd              =   0.0000000000000E+00
(PID.TID 0000.0001) %MON dynstat_uvel_del2            =   0.0000000000000E+00
(PID.TID 0000.0001) %MON dynstat_vvel_max             =   0.0000000000000E+00
(PID.TID 0000.0001) %MON dynstat_vvel_min             =   0.0000000000000E+00
(PID.TID 0000.0001) %MON dynstat_vvel_mean            =   0.0000000000000E+00
(PID.TID 0000.0001) %MON dynstat_vvel_sd              =   0.0000000000000E+00
(PID.TID 0000.0001) %MON dynstat_vvel_del2            =   0.0000000000000E+00
(PID.TID 0000.0001) %MON dynstat_wvel_max             =   0.0000000000000E+00
(PID.TID 0000.0001) %MON dynstat_wvel_min             =   0.0000000000000E+00
(PID.TID 0000.0001) %MON dynstat_wvel_mean            =   0.0000000000000E+00
(PID.TID 0000.0001) %MON dynstat_wvel_sd              =   0.0000000000000E+00
(PID.TID 0000.0001) %MON dynstat_wvel_del2            =   0.0000000000000E+00
(PID.TID 0000.0001) %MON dynstat_theta_max            =   4.8420000000000E-02
(PID.TID 0000.0001) %MON dynstat_theta_min            =  -4.8420000000000E-02
(PID.TID 0000.0001) %MON dynstat_theta_mean           =   1.3984481732139E-02
(PID.TID 0000.0001) %MON dynstat_theta_sd             =   2.7839130810646E-02
(PID.TID 0000.0001) %MON dynstat_theta_del2           =   2.9272547939936E-10
(PID.TID 0000.0001) %MON dynstat_salt_max             =   3.5000000000000E+01
(PID.TID 0000.0001) %MON dynstat_salt_min             =   0.0000000000000E+00
(PID.TID 0000.0001) %MON dynstat_salt_mean            =   3.3847052152665E+01
(PID.TID 0000.0001) %MON dynstat_salt_sd              =   6.2469101096520E+00
(PID.TID 0000.0001) %MON dynstat_salt_del2            =   5.6726094003241E-01
(PID.TID 0000.0001) %MON advcfl_uvel_max              =   0.0000000000000E+00
(PID.TID 0000.0001) %MON advcfl_vvel_max              =   0.0000000000000E+00
(PID.TID 0000.0001) %MON advcfl_wvel_max              =   0.0000000000000E+00
(PID.TID 0000.0001) %MON advcfl_W_hf_max              =   0.0000000000000E+00
(PID.TID 0000.0001) %MON pe_b_mean                    =   0.0000000000000E+00
(PID.TID 0000.0001) %MON ke_max                       =   0.0000000000000E+00
(PID.TID 0000.0001) %MON ke_mean                      =   0.0000000000000E+00
(PID.TID 0000.0001) %MON ke_vol                       =   6.6188141628594E+09
(PID.TID 0000.0001) %MON vort_r_min                   =   0.0000000000000E+00
(PID.TID 0000.0001) %MON vort_r_max                   =   0.0000000000000E+00
(PID.TID 0000.0001) %MON vort_a_mean                  =   0.0000000000000E+00
(PID.TID 0000.0001) %MON vort_a_sd                    =   0.0000000000000E+00
(PID.TID 0000.0001) %MON vort_p_mean                  =   0.0000000000000E+00
(PID.TID 0000.0001) %MON vort_p_sd                    =   0.0000000000000E+00
(PID.TID 0000.0001) %MON surfExpan_theta_mean         =   0.0000000000000E+00
(PID.TID 0000.0001) %MON surfExpan_salt_mean          =   0.0000000000000E+00
(PID.TID 0000.0001) // =======================================================
(PID.TID 0000.0001) // End MONITOR dynamic field statistics
(PID.TID 0000.0001) // =======================================================
 cg2d: Sum(rhs),rhsMax =   0.00000000000000E+00  0.00000000000000E+00
 cg2d: Sum(rhs),rhsMax =  -7.63271390535891E-13  1.07634058172070E-06
 cg2d: Sum(rhs),rhsMax =   1.03118468625096E-15  7.54886693778342E-05
 cg2d: Sum(rhs),rhsMax =   1.06639415180243E-15  9.21591535054174E-05
 cg2d: Sum(rhs),rhsMax =  -1.95188917112565E-15  1.87619597707108E-04
(PID.TID 0000.0001)                    cg2d_init_res =    7.04684413102679E-01
(PID.TID 0000.0001)                       cg2d_iters =    58
(PID.TID 0000.0001)                         cg2d_res =    1.52027528129103E-19
(PID.TID 0000.0001) // =======================================================
(PID.TID 0000.0001) // Begin MONITOR dynamic field statistics
(PID.TID 0000.0001) // =======================================================
(PID.TID 0000.0001) %MON time_tsnumber                =                     5
(PID.TID 0000.0001) %MON time_secondsf                =   2.5000000000000E+03
(PID.TID 0000.0001) %MON dynstat_eta_max              =   1.8838689085515E-05
(PID.TID 0000.0001) %MON dynstat_eta_min              =  -7.0430999059628E-07
(PID.TID 0000.0001) %MON dynstat_eta_mean             =   1.4000922704314E-18
(PID.TID 0000.0001) %MON dynstat_eta_sd               =   2.4811881881348E-06
(PID.TID 0000.0001) %MON dynstat_eta_del2             =   3.2213351752224E-07
(PID.TID 0000.0001) %MON dynstat_uvel_max             =   8.0150165287875E-03
(PID.TID 0000.0001) %MON dynstat_uvel_min             =  -8.0150165287875E-03
(PID.TID 0000.0001) %MON dynstat_uvel_mean            =  -2.1302863361980E-08
(PID.TID 0000.0001) %MON dynstat_uvel_sd              =   1.0524319999168E-03
(PID.TID 0000.0001) %MON dynstat_uvel_del2            =   7.9323456744431E-05
(PID.TID 0000.0001) %MON dynstat_vvel_max             =   0.0000000000000E+00
(PID.TID 0000.0001) %MON dynstat_vvel_min             =   0.0000000000000E+00
(PID.TID 0000.0001) %MON dynstat_vvel_mean            =   0.0000000000000E+00
(PID.TID 0000.0001) %MON dynstat_vvel_sd              =   0.0000000000000E+00
(PID.TID 0000.0001) %MON dynstat_vvel_del2            =   0.0000000000000E+00
(PID.TID 0000.0001) %MON dynstat_wvel_max             =   2.3499042947512E-03
(PID.TID 0000.0001) %MON dynstat_wvel_min             =  -2.1666602986528E-03
(PID.TID 0000.0001) %MON dynstat_wvel_mean            =  -1.0204039323451E-20
(PID.TID 0000.0001) %MON dynstat_wvel_sd              =   4.1768560235115E-04
(PID.TID 0000.0001) %MON dynstat_wvel_del2            =   6.6962012505239E-05
(PID.TID 0000.0001) %MON dynstat_theta_max            =   4.8751308589830E-02
(PID.TID 0000.0001) %MON dynstat_theta_min            =  -4.8294115600338E-02
(PID.TID 0000.0001) %MON dynstat_theta_mean           =   1.4104583444709E-02
(PID.TID 0000.0001) %MON dynstat_theta_sd             =   2.7763973874816E-02
(PID.TID 0000.0001) %MON dynstat_theta_del2           =   3.2102147848860E-05
(PID.TID 0000.0001) %MON dynstat_salt_max             =   3.5000000000000E+01
(PID.TID 0000.0001) %MON dynstat_salt_min             =   0.0000000000000E+00
(PID.TID 0000.0001) %MON dynstat_salt_mean            =   3.3847052152665E+01
(PID.TID 0000.0001) %MON dynstat_salt_sd              =   6.2469101096520E+00
(PID.TID 0000.0001) %MON dynstat_salt_del2            =   5.6726094003241E-01
(PID.TID 0000.0001) %MON advcfl_uvel_max              =   1.8380301062257E-02
(PID.TID 0000.0001) %MON advcfl_vvel_max              =   0.0000000000000E+00
(PID.TID 0000.0001) %MON advcfl_wvel_max              =   1.1749521473756E-01
(PID.TID 0000.0001) %MON advcfl_W_hf_max              =   1.1749521473756E-01
(PID.TID 0000.0001) %MON pe_b_mean                    =   2.9344185279709E-13
(PID.TID 0000.0001) %MON ke_max                       =   1.6167187656620E-05
(PID.TID 0000.0001) %MON ke_mean                      =   5.3556341203711E-07
(PID.TID 0000.0001) %MON ke_vol                       =   6.6188141628594E+09
(PID.TID 0000.0001) %MON vort_r_min                   =   0.0000000000000E+00
(PID.TID 0000.0001) %MON vort_r_max                   =   0.0000000000000E+00
(PID.TID 0000.0001) %MON vort_a_mean                  =   0.0000000000000E+00
(PID.TID 0000.0001) %MON vort_a_sd                    =   0.0000000000000E+00
(PID.TID 0000.0001) %MON vort_p_mean                  =   0.0000000000000E+00
(PID.TID 0000.0001) %MON vort_p_sd                    =   0.0000000000000E+00
(PID.TID 0000.0001) %MON surfExpan_theta_mean         =   1.2266535725250E-13
(PID.TID 0000.0001) %MON surfExpan_salt_mean          =   2.0683683798740E-19
(PID.TID 0000.0001) // =======================================================
(PID.TID 0000.0001) // End MONITOR dynamic field statistics
(PID.TID 0000.0001) // =======================================================
 cg2d: Sum(rhs),rhsMax =  -4.63156260305936E-15  2.18318804270891E-04
 cg2d: Sum(rhs),rhsMax =  -2.73397840824807E-15  3.19782805329127E-04
 cg2d: Sum(rhs),rhsMax =   4.53409960401649E-15  3.50014219842657E-04
 cg2d: Sum(rhs),rhsMax =  -2.83549784807534E-16  4.42716694815265E-04
 cg2d: Sum(rhs),rhsMax =  -1.24162155166682E-15  4.59164943928715E-04
(PID.TID 0000.0001)                    cg2d_init_res =    8.09475713607069E-02
(PID.TID 0000.0001)                       cg2d_iters =    58
(PID.TID 0000.0001)                         cg2d_res =    3.82754721919639E-19
(PID.TID 0000.0001) // =======================================================
(PID.TID 0000.0001) // Begin MONITOR dynamic field statistics
(PID.TID 0000.0001) // =======================================================
(PID.TID 0000.0001) %MON time_tsnumber                =                    10
(PID.TID 0000.0001) %MON time_secondsf                =   5.0000000000000E+03
(PID.TID 0000.0001) %MON dynstat_eta_max              =   5.6399027008443E-05
(PID.TID 0000.0001) %MON dynstat_eta_min              =  -1.5266432575850E-06
(PID.TID 0000.0001) %MON dynstat_eta_mean             =   1.3260880718846E-18
(PID.TID 0000.0001) %MON dynstat_eta_sd               =   7.5402177439608E-06
(PID.TID 0000.0001) %MON dynstat_eta_del2             =   8.7528850641840E-07
(PID.TID 0000.0001) %MON dynstat_uvel_max             =   1.5044623392047E-02
(PID.TID 0000.0001) %MON dynstat_uvel_min             =  -1.5044623392047E-02
(PID.TID 0000.0001) %MON dynstat_uvel_mean            =  -2.4951840631880E-08
(PID.TID 0000.0001) %MON dynstat_uvel_sd              =   2.0643256049420E-03
(PID.TID 0000.0001) %MON dynstat_uvel_del2            =   1.1145793345250E-04
(PID.TID 0000.0001) %MON dynstat_vvel_max             =   0.0000000000000E+00
(PID.TID 0000.0001) %MON dynstat_vvel_min             =   0.0000000000000E+00
(PID.TID 0000.0001) %MON dynstat_vvel_mean            =   0.0000000000000E+00
(PID.TID 0000.0001) %MON dynstat_vvel_sd              =   0.0000000000000E+00
(PID.TID 0000.0001) %MON dynstat_vvel_del2            =   0.0000000000000E+00
(PID.TID 0000.0001) %MON dynstat_wvel_max             =   4.4108985920249E-03
(PID.TID 0000.0001) %MON dynstat_wvel_min             =  -3.0321641043089E-03
(PID.TID 0000.0001) %MON dynstat_wvel_mean            =   5.8643202809126E-21
(PID.TID 0000.0001) %MON dynstat_wvel_sd              =   7.1721363097602E-04
(PID.TID 0000.0001) %MON dynstat_wvel_del2            =   9.5119473066052E-05
(PID.TID 0000.0001) %MON dynstat_theta_max            =   4.9041884302128E-02
(PID.TID 0000.0001) %MON dynstat_theta_min            =  -4.8171354040724E-02
(PID.TID 0000.0001) %MON dynstat_theta_mean           =   1.4274714644170E-02
(PID.TID 0000.0001) %MON dynstat_theta_sd             =   2.7676197659039E-02
(PID.TID 0000.0001) %MON dynstat_theta_del2           =   4.9483496699873E-05
(PID.TID 0000.0001) %MON dynstat_salt_max             =   3.5000000000000E+01
(PID.TID 0000.0001) %MON dynstat_salt_min             =   0.0000000000000E+00
(PID.TID 0000.0001) %MON dynstat_salt_mean            =   3.3847052152665E+01
(PID.TID 0000.0001) %MON dynstat_salt_sd              =   6.2469101096520E+00
(PID.TID 0000.0001) %MON dynstat_salt_del2            =   5.6726094003241E-01
(PID.TID 0000.0001) %MON advcfl_uvel_max              =   3.4500828079506E-02
(PID.TID 0000.0001) %MON advcfl_vvel_max              =   0.0000000000000E+00
(PID.TID 0000.0001) %MON advcfl_wvel_max              =   2.2054492960125E-01
(PID.TID 0000.0001) %MON advcfl_W_hf_max              =   2.2054492960125E-01
(PID.TID 0000.0001) %MON pe_b_mean                    =   2.7100070523410E-12
(PID.TID 0000.0001) %MON ke_max                       =   6.2418922137623E-05
(PID.TID 0000.0001) %MON ke_mean                      =   2.0605312399552E-06
(PID.TID 0000.0001) %MON ke_vol                       =   6.6188141628594E+09
(PID.TID 0000.0001) %MON vort_r_min                   =   0.0000000000000E+00
(PID.TID 0000.0001) %MON vort_r_max                   =   0.0000000000000E+00
(PID.TID 0000.0001) %MON vort_a_mean                  =   0.0000000000000E+00
(PID.TID 0000.0001) %MON vort_a_sd                    =   0.0000000000000E+00
(PID.TID 0000.0001) %MON vort_p_mean                  =   0.0000000000000E+00
(PID.TID 0000.0001) %MON vort_p_sd                    =   0.0000000000000E+00
(PID.TID 0000.0001) %MON surfExpan_theta_mean         =  -5.6700727703406E-13
(PID.TID 0000.0001) %MON surfExpan_salt_mean          =   2.8424063720085E-19
(PID.TID 0000.0001) // =======================================================
(PID.TID 0000.0001) // End MONITOR dynamic field statistics
(PID.TID 0000.0001) // =======================================================
 cg2d: Sum(rhs),rhsMax =   1.71846044338952E-16  5.31285549576947E-04
 cg2d: Sum(rhs),rhsMax =  -4.48547991284409E-15  5.24996738324728E-04
 cg2d: Sum(rhs),rhsMax =  -5.07593641597970E-15  5.70212072495093E-04
 cg2d: Sum(rhs),rhsMax =  -6.07856592751282E-15  5.38368110870459E-04
 cg2d: Sum(rhs),rhsMax =  -7.40348808734442E-15  5.56671346383094E-04
(PID.TID 0000.0001)                    cg2d_init_res =    9.28857316570100E-02
(PID.TID 0000.0001)                       cg2d_iters =    58
(PID.TID 0000.0001)                         cg2d_res =    1.62560177601600E-19
(PID.TID 0000.0001) // =======================================================
(PID.TID 0000.0001) // Begin MONITOR dynamic field statistics
(PID.TID 0000.0001) // =======================================================
(PID.TID 0000.0001) %MON time_tsnumber                =                    15
(PID.TID 0000.0001) %MON time_secondsf                =   7.5000000000000E+03
(PID.TID 0000.0001) %MON dynstat_eta_max              =   9.4236610522152E-05
(PID.TID 0000.0001) %MON dynstat_eta_min              =  -3.2392787647365E-06
(PID.TID 0000.0001) %MON dynstat_eta_mean             =   1.8786881049322E-17
(PID.TID 0000.0001) %MON dynstat_eta_sd               =   1.3429892775115E-05
(PID.TID 0000.0001) %MON dynstat_eta_del2             =   1.2810254104329E-06
(PID.TID 0000.0001) %MON dynstat_uvel_max             =   2.0224562540773E-02
(PID.TID 0000.0001) %MON dynstat_uvel_min             =  -2.0224562540773E-02
(PID.TID 0000.0001) %MON dynstat_uvel_mean            =  -3.7273760727849E-08
(PID.TID 0000.0001) %MON dynstat_uvel_sd              =   3.0889812337668E-03
(PID.TID 0000.0001) %MON dynstat_uvel_del2            =   9.5879331902790E-05
(PID.TID 0000.0001) %MON dynstat_vvel_max             =   0.0000000000000E+00
(PID.TID 0000.0001) %MON dynstat_vvel_min             =   0.0000000000000E+00
(PID.TID 0000.0001) %MON dynstat_vvel_mean            =   0.0000000000000E+00
(PID.TID 0000.0001) %MON dynstat_vvel_sd              =   0.0000000000000E+00
(PID.TID 0000.0001) %MON dynstat_vvel_del2            =   0.0000000000000E+00
(PID.TID 0000.0001) %MON dynstat_wvel_max             =   5.9295930586453E-03
(PID.TID 0000.0001) %MON dynstat_wvel_min             =  -2.5843099540541E-03
(PID.TID 0000.0001) %MON dynstat_wvel_mean            =  -1.2824733720649E-21
(PID.TID 0000.0001) %MON dynstat_wvel_sd              =   9.0928130746265E-04
(PID.TID 0000.0001) %MON dynstat_wvel_del2            =   1.0524125506192E-04
(PID.TID 0000.0001) %MON dynstat_theta_max            =   4.9256002180563E-02
(PID.TID 0000.0001) %MON dynstat_theta_min            =  -4.8051473518898E-02
(PID.TID 0000.0001) %MON dynstat_theta_mean           =   1.4472192453959E-02
(PID.TID 0000.0001) %MON dynstat_theta_sd             =   2.7584718696434E-02
(PID.TID 0000.0001) %MON dynstat_theta_del2           =   6.3960206394634E-05
(PID.TID 0000.0001) %MON dynstat_salt_max             =   3.5000000000000E+01
(PID.TID 0000.0001) %MON dynstat_salt_min             =   0.0000000000000E+00
(PID.TID 0000.0001) %MON dynstat_salt_mean            =   3.3847052152665E+01
(PID.TID 0000.0001) %MON dynstat_salt_sd              =   6.2469101096520E+00
(PID.TID 0000.0001) %MON dynstat_salt_del2            =   5.6726094003241E-01
(PID.TID 0000.0001) %MON advcfl_uvel_max              =   4.6379635901772E-02
(PID.TID 0000.0001) %MON advcfl_vvel_max              =   0.0000000000000E+00
(PID.TID 0000.0001) %MON advcfl_wvel_max              =   2.9647965293226E-01
(PID.TID 0000.0001) %MON advcfl_W_hf_max              =   2.9647965293226E-01
(PID.TID 0000.0001) %MON pe_b_mean                    =   8.5970160321543E-12
(PID.TID 0000.0001) %MON ke_max                       =   1.3729536886650E-04
(PID.TID 0000.0001) %MON ke_mean                      =   4.6137424363250E-06
(PID.TID 0000.0001) %MON ke_vol                       =   6.6188141628594E+09
(PID.TID 0000.0001) %MON vort_r_min                   =   0.0000000000000E+00
(PID.TID 0000.0001) %MON vort_r_max                   =   0.0000000000000E+00
(PID.TID 0000.0001) %MON vort_a_mean                  =   0.0000000000000E+00
(PID.TID 0000.0001) %MON vort_a_sd                    =   0.0000000000000E+00
(PID.TID 0000.0001) %MON vort_p_mean                  =   0.0000000000000E+00
(PID.TID 0000.0001) %MON vort_p_sd                    =   0.0000000000000E+00
(PID.TID 0000.0001) %MON surfExpan_theta_mean         =   1.7999091625081E-12
(PID.TID 0000.0001) %MON surfExpan_salt_mean          =   3.2478676870984E-19
(PID.TID 0000.0001) // =======================================================
(PID.TID 0000.0001) // End MONITOR dynamic field statistics
(PID.TID 0000.0001) // =======================================================
 cg2d: Sum(rhs),rhsMax =  -1.37473582864645E-14  5.02430297237912E-04
 cg2d: Sum(rhs),rhsMax =  -1.16212107211661E-14  4.99101069043377E-04
 cg2d: Sum(rhs),rhsMax =  -2.21244463721737E-14  4.29800746598595E-04
 cg2d: Sum(rhs),rhsMax =  -2.60481469293444E-14  4.13045463378612E-04
 cg2d: Sum(rhs),rhsMax =  -3.80753371539977E-14  3.37550625796071E-04
(PID.TID 0000.0001)                    cg2d_init_res =    3.89982545856305E-01
(PID.TID 0000.0001)                       cg2d_iters =    58
(PID.TID 0000.0001)                         cg2d_res =    2.30488672727272E-19
(PID.TID 0000.0001) // =======================================================
(PID.TID 0000.0001) // Begin MONITOR dynamic field statistics
(PID.TID 0000.0001) // =======================================================
(PID.TID 0000.0001) %MON time_tsnumber                =                    20
(PID.TID 0000.0001) %MON time_secondsf                =   1.0000000000000E+04
(PID.TID 0000.0001) %MON dynstat_eta_max              =   1.1182879653407E-04
(PID.TID 0000.0001) %MON dynstat_eta_min              =  -4.7888533290753E-06
(PID.TID 0000.0001) %MON dynstat_eta_mean             =   5.5024922047103E-17
(PID.TID 0000.0001) %MON dynstat_eta_sd               =   1.8386783569019E-05
(PID.TID 0000.0001) %MON dynstat_eta_del2             =   1.4008375615413E-06
(PID.TID 0000.0001) %MON dynstat_uvel_max             =   2.2917984121235E-02
(PID.TID 0000.0001) %MON dynstat_uvel_min             =  -2.2917984121235E-02
(PID.TID 0000.0001) %MON dynstat_uvel_mean            =  -2.7462650082517E-08
(PID.TID 0000.0001) %MON dynstat_uvel_sd              =   4.0273407192776E-03
(PID.TID 0000.0001) %MON dynstat_uvel_del2            =   1.0903388202252E-04
(PID.TID 0000.0001) %MON dynstat_vvel_max             =   0.0000000000000E+00
(PID.TID 0000.0001) %MON dynstat_vvel_min             =   0.0000000000000E+00
(PID.TID 0000.0001) %MON dynstat_vvel_mean            =   0.0000000000000E+00
(PID.TID 0000.0001) %MON dynstat_vvel_sd              =   0.0000000000000E+00
(PID.TID 0000.0001) %MON dynstat_vvel_del2            =   0.0000000000000E+00
(PID.TID 0000.0001) %MON dynstat_wvel_max             =   6.7192711481128E-03
(PID.TID 0000.0001) %MON dynstat_wvel_min             =  -2.9013866890775E-03
(PID.TID 0000.0001) %MON dynstat_wvel_mean            =  -8.2983571133610E-21
(PID.TID 0000.0001) %MON dynstat_wvel_sd              =   1.0050191601109E-03
(PID.TID 0000.0001) %MON dynstat_wvel_del2            =   9.7490249946473E-05
(PID.TID 0000.0001) %MON dynstat_theta_max            =   4.9367337410184E-02
(PID.TID 0000.0001) %MON dynstat_theta_min            =  -4.7934334555807E-02
(PID.TID 0000.0001) %MON dynstat_theta_mean           =   1.4672639466557E-02
(PID.TID 0000.0001) %MON dynstat_theta_sd             =   2.7494396749581E-02
(PID.TID 0000.0001) %MON dynstat_theta_del2           =   6.1747896400980E-05
(PID.TID 0000.0001) %MON dynstat_salt_max             =   3.5000000000000E+01
(PID.TID 0000.0001) %MON dynstat_salt_min             =   0.0000000000000E+00
(PID.TID 0000.0001) %MON dynstat_salt_mean            =   3.3847052152665E+01
(PID.TID 0000.0001) %MON dynstat_salt_sd              =   6.2469101096520E+00
(PID.TID 0000.0001) %MON dynstat_salt_del2            =   5.6726094003241E-01
(PID.TID 0000.0001) %MON advcfl_uvel_max              =   5.2556279375764E-02
(PID.TID 0000.0001) %MON advcfl_vvel_max              =   0.0000000000000E+00
(PID.TID 0000.0001) %MON advcfl_wvel_max              =   3.3596355740564E-01
(PID.TID 0000.0001) %MON advcfl_W_hf_max              =   3.3596355740564E-01
(PID.TID 0000.0001) %MON pe_b_mean                    =   1.6114401277661E-11
(PID.TID 0000.0001) %MON ke_max                       =   2.1957134513114E-04
(PID.TID 0000.0001) %MON ke_mean                      =   7.8425906020700E-06
(PID.TID 0000.0001) %MON ke_vol                       =   6.6188141628594E+09
(PID.TID 0000.0001) %MON vort_r_min                   =   0.0000000000000E+00
(PID.TID 0000.0001) %MON vort_r_max                   =   0.0000000000000E+00
(PID.TID 0000.0001) %MON vort_a_mean                  =   0.0000000000000E+00
(PID.TID 0000.0001) %MON vort_a_sd                    =   0.0000000000000E+00
(PID.TID 0000.0001) %MON vort_p_mean                  =   0.0000000000000E+00
(PID.TID 0000.0001) %MON vort_p_sd                    =   0.0000000000000E+00
(PID.TID 0000.0001) %MON surfExpan_theta_mean         =  -1.9404285765515E-12
(PID.TID 0000.0001) %MON surfExpan_salt_mean          =   4.2612965815879E-19
(PID.TID 0000.0001) // =======================================================
(PID.TID 0000.0001) // End MONITOR dynamic field statistics
(PID.TID 0000.0001) // =======================================================
 cg2d: Sum(rhs),rhsMax =  -4.45433620543945E-14  3.15794230579827E-04
 cg2d: Sum(rhs),rhsMax =  -6.53406365472287E-14  2.89168296471757E-04
 cg2d: Sum(rhs),rhsMax =  -6.29847736466349E-14  2.90431798597704E-04
 cg2d: Sum(rhs),rhsMax =  -5.45951088157248E-14  3.41072694159848E-04
 cg2d: Sum(rhs),rhsMax =  -6.38281745166114E-14  3.17878452886964E-04
(PID.TID 0000.0001)                    cg2d_init_res =    2.44665353756893E-01
(PID.TID 0000.0001)                       cg2d_iters =    58
(PID.TID 0000.0001)                         cg2d_res =    5.71511499888536E-19
(PID.TID 0000.0001) // =======================================================
(PID.TID 0000.0001) // Begin MONITOR dynamic field statistics
(PID.TID 0000.0001) // =======================================================
(PID.TID 0000.0001) %MON time_tsnumber                =                    25
(PID.TID 0000.0001) %MON time_secondsf                =   1.2500000000000E+04
(PID.TID 0000.0001) %MON dynstat_eta_max              =   1.1828616548500E-04
(PID.TID 0000.0001) %MON dynstat_eta_min              =  -6.3665385986548E-06
(PID.TID 0000.0001) %MON dynstat_eta_mean             =   9.7784258534678E-17
(PID.TID 0000.0001) %MON dynstat_eta_sd               =   2.2527879077038E-05
(PID.TID 0000.0001) %MON dynstat_eta_del2             =   1.3982742685307E-06
(PID.TID 0000.0001) %MON dynstat_uvel_max             =   2.2793744255040E-02
(PID.TID 0000.0001) %MON dynstat_uvel_min             =  -2.2844529130039E-02
(PID.TID 0000.0001) %MON dynstat_uvel_mean            =  -4.7938943639955E-08
(PID.TID 0000.0001) %MON dynstat_uvel_sd              =   4.7329870738802E-03
(PID.TID 0000.0001) %MON dynstat_uvel_del2            =   1.0744395060232E-04
(PID.TID 0000.0001) %MON dynstat_vvel_max             =   0.0000000000000E+00
(PID.TID 0000.0001) %MON dynstat_vvel_min             =   0.0000000000000E+00
(PID.TID 0000.0001) %MON dynstat_vvel_mean            =   0.0000000000000E+00
(PID.TID 0000.0001) %MON dynstat_vvel_sd              =   0.0000000000000E+00
(PID.TID 0000.0001) %MON dynstat_vvel_del2            =   0.0000000000000E+00
(PID.TID 0000.0001) %MON dynstat_wvel_max             =   6.6828455469800E-03
(PID.TID 0000.0001) %MON dynstat_wvel_min             =  -2.8175074238288E-03
(PID.TID 0000.0001) %MON dynstat_wvel_mean            =   4.1891171738036E-21
(PID.TID 0000.0001) %MON dynstat_wvel_sd              =   9.9773771337978E-04
(PID.TID 0000.0001) %MON dynstat_wvel_del2            =   8.4567610259906E-05
(PID.TID 0000.0001) %MON dynstat_theta_max            =   4.9362201833142E-02
(PID.TID 0000.0001) %MON dynstat_theta_min            =  -4.7819782565905E-02
(PID.TID 0000.0001) %MON dynstat_theta_mean           =   1.4851670195689E-02
(PID.TID 0000.0001) %MON dynstat_theta_sd             =   2.7408364090546E-02
(PID.TID 0000.0001) %MON dynstat_theta_del2           =   6.4352349324249E-05
(PID.TID 0000.0001) %MON dynstat_salt_max             =   3.5000000000000E+01
(PID.TID 0000.0001) %MON dynstat_salt_min             =   0.0000000000000E+00
(PID.TID 0000.0001) %MON dynstat_salt_mean            =   3.3847052152665E+01
(PID.TID 0000.0001) %MON dynstat_salt_sd              =   6.2469101096520E+00
(PID.TID 0000.0001) %MON dynstat_salt_del2            =   5.6726094003241E-01
(PID.TID 0000.0001) %MON advcfl_uvel_max              =   5.2387829959865E-02
(PID.TID 0000.0001) %MON advcfl_vvel_max              =   0.0000000000000E+00
(PID.TID 0000.0001) %MON advcfl_wvel_max              =   3.3414227734900E-01
(PID.TID 0000.0001) %MON advcfl_W_hf_max              =   3.3414227734900E-01
(PID.TID 0000.0001) %MON pe_b_mean                    =   2.4190411643665E-11
(PID.TID 0000.0001) %MON ke_max                       =   2.6035682208435E-04
(PID.TID 0000.0001) %MON ke_mean                      =   1.0831620555588E-05
(PID.TID 0000.0001) %MON ke_vol                       =   6.6188141628594E+09
(PID.TID 0000.0001) %MON vort_r_min                   =   0.0000000000000E+00
(PID.TID 0000.0001) %MON vort_r_max                   =   0.0000000000000E+00
(PID.TID 0000.0001) %MON vort_a_mean                  =   0.0000000000000E+00
(PID.TID 0000.0001) %MON vort_a_sd                    =   0.0000000000000E+00
(PID.TID 0000.0001) %MON vort_p_mean                  =   0.0000000000000E+00
(PID.TID 0000.0001) %MON vort_p_sd                    =   0.0000000000000E+00
(PID.TID 0000.0001) %MON surfExpan_theta_mean         =   2.3691265928854E-12
(PID.TID 0000.0001) %MON surfExpan_salt_mean          =   5.0989047457450E-19
(PID.TID 0000.0001) // =======================================================
(PID.TID 0000.0001) // End MONITOR dynamic field statistics
(PID.TID 0000.0001) // =======================================================
 cg2d: Sum(rhs),rhsMax =  -6.93368973347930E-14  3.44765716936306E-04
 cg2d: Sum(rhs),rhsMax =  -8.57993147015956E-14  3.03022745651030E-04
 cg2d: Sum(rhs),rhsMax =  -8.03116254055602E-14  3.13834005157819E-04
 cg2d: Sum(rhs),rhsMax =  -1.06466484933732E-13  2.62634396609528E-04
 cg2d: Sum(rhs),rhsMax =  -1.12137512817134E-13  2.67196315661569E-04
(PID.TID 0000.0001)                    cg2d_init_res =    2.94297767702202E-01
(PID.TID 0000.0001)                       cg2d_iters =    58
(PID.TID 0000.0001)                         cg2d_res =    1.47417710100789E-18
(PID.TID 0000.0001) // =======================================================
(PID.TID 0000.0001) // Begin MONITOR dynamic field statistics
(PID.TID 0000.0001) // =======================================================
(PID.TID 0000.0001) %MON time_tsnumber                =                    30
(PID.TID 0000.0001) %MON time_secondsf                =   1.5000000000000E+04
(PID.TID 0000.0001) %MON dynstat_eta_max              =   1.1618370347403E-04
(PID.TID 0000.0001) %MON dynstat_eta_min              =  -8.2225295574540E-06
(PID.TID 0000.0001) %MON dynstat_eta_mean             =   1.3297857409901E-16
(PID.TID 0000.0001) %MON dynstat_eta_sd               =   2.5734658854420E-05
(PID.TID 0000.0001) %MON dynstat_eta_del2             =   1.3921772855139E-06
(PID.TID 0000.0001) %MON dynstat_uvel_max             =   2.2859842249556E-02
(PID.TID 0000.0001) %MON dynstat_uvel_min             =  -2.3409630150852E-02
(PID.TID 0000.0001) %MON dynstat_uvel_mean            =  -2.1561037916809E-08
(PID.TID 0000.0001) %MON dynstat_uvel_sd              =   5.1630069869395E-03
(PID.TID 0000.0001) %MON dynstat_uvel_del2            =   1.3141652265573E-04
(PID.TID 0000.0001) %MON dynstat_vvel_max             =   0.0000000000000E+00
(PID.TID 0000.0001) %MON dynstat_vvel_min             =   0.0000000000000E+00
(PID.TID 0000.0001) %MON dynstat_vvel_mean            =   0.0000000000000E+00
(PID.TID 0000.0001) %MON dynstat_vvel_sd              =   0.0000000000000E+00
(PID.TID 0000.0001) %MON dynstat_vvel_del2            =   0.0000000000000E+00
(PID.TID 0000.0001) %MON dynstat_wvel_max             =   5.8247946164955E-03
(PID.TID 0000.0001) %MON dynstat_wvel_min             =  -2.4924089906653E-03
(PID.TID 0000.0001) %MON dynstat_wvel_mean            =   7.6060877498934E-21
(PID.TID 0000.0001) %MON dynstat_wvel_sd              =   9.0712483353480E-04
(PID.TID 0000.0001) %MON dynstat_wvel_del2            =   7.0565531913345E-05
(PID.TID 0000.0001) %MON dynstat_theta_max            =   4.9241226845175E-02
(PID.TID 0000.0001) %MON dynstat_theta_min            =  -4.7707633110511E-02
(PID.TID 0000.0001) %MON dynstat_theta_mean           =   1.4987451395732E-02
(PID.TID 0000.0001) %MON dynstat_theta_sd             =   2.7331968778209E-02
(PID.TID 0000.0001) %MON dynstat_theta_del2           =   7.5885084297642E-05
(PID.TID 0000.0001) %MON dynstat_salt_max             =   3.5000000000000E+01
(PID.TID 0000.0001) %MON dynstat_salt_min             =   0.0000000000000E+00
(PID.TID 0000.0001) %MON dynstat_salt_mean            =   3.3847052152665E+01
(PID.TID 0000.0001) %MON dynstat_salt_sd              =   6.2469101096520E+00
(PID.TID 0000.0001) %MON dynstat_salt_del2            =   5.6726094003241E-01
(PID.TID 0000.0001) %MON advcfl_uvel_max              =   5.3683738315865E-02
(PID.TID 0000.0001) %MON advcfl_vvel_max              =   0.0000000000000E+00
(PID.TID 0000.0001) %MON advcfl_wvel_max              =   2.9123973082477E-01
(PID.TID 0000.0001) %MON advcfl_W_hf_max              =   2.9123973082477E-01
(PID.TID 0000.0001) %MON pe_b_mean                    =   3.1567448245709E-11
(PID.TID 0000.0001) %MON ke_max                       =   2.5039958615268E-04
(PID.TID 0000.0001) %MON ke_mean                      =   1.2889267087859E-05
(PID.TID 0000.0001) %MON ke_vol                       =   6.6188141628594E+09
(PID.TID 0000.0001) %MON vort_r_min                   =   0.0000000000000E+00
(PID.TID 0000.0001) %MON vort_r_max                   =   0.0000000000000E+00
(PID.TID 0000.0001) %MON vort_a_mean                  =   0.0000000000000E+00
(PID.TID 0000.0001) %MON vort_a_sd                    =   0.0000000000000E+00
(PID.TID 0000.0001) %MON vort_p_mean                  =   0.0000000000000E+00
(PID.TID 0000.0001) %MON vort_p_sd                    =   0.0000000000000E+00
(PID.TID 0000.0001) %MON surfExpan_theta_mean         =  -1.1686232028403E-12
(PID.TID 0000.0001) %MON surfExpan_salt_mean          =   3.2782125569123E-19
(PID.TID 0000.0001) // =======================================================
(PID.TID 0000.0001) // End MONITOR dynamic field statistics
(PID.TID 0000.0001) // =======================================================
 cg2d: Sum(rhs),rhsMax =  -1.10471961439762E-13  3.02827378691138E-04
 cg2d: Sum(rhs),rhsMax =  -1.02232458609741E-13  3.20759636741820E-04
 cg2d: Sum(rhs),rhsMax =  -9.55975749949989E-14  3.36148975345507E-04
 cg2d: Sum(rhs),rhsMax =  -1.04392839858636E-13  3.33795585601371E-04
 cg2d: Sum(rhs),rhsMax =  -1.10356819169044E-13  3.32385001033305E-04
(PID.TID 0000.0001)                    cg2d_init_res =    2.32618871503118E-01
(PID.TID 0000.0001)                       cg2d_iters =    58
(PID.TID 0000.0001)                         cg2d_res =    1.84892804488517E-18
(PID.TID 0000.0001) // =======================================================
(PID.TID 0000.0001) // Begin MONITOR dynamic field statistics
(PID.TID 0000.0001) // =======================================================
(PID.TID 0000.0001) %MON time_tsnumber                =                    35
(PID.TID 0000.0001) %MON time_secondsf                =   1.7500000000000E+04
(PID.TID 0000.0001) %MON dynstat_eta_max              =   1.1190350897774E-04
(PID.TID 0000.0001) %MON dynstat_eta_min              =  -9.5174486563628E-06
(PID.TID 0000.0001) %MON dynstat_eta_mean             =   1.6253765608682E-16
(PID.TID 0000.0001) %MON dynstat_eta_sd               =   2.7420246676436E-05
(PID.TID 0000.0001) %MON dynstat_eta_del2             =   1.2360712435945E-06
(PID.TID 0000.0001) %MON dynstat_uvel_max             =   2.2938735980025E-02
(PID.TID 0000.0001) %MON dynstat_uvel_min             =  -2.3466469154775E-02
(PID.TID 0000.0001) %MON dynstat_uvel_mean            =  -4.3528093597157E-08
(PID.TID 0000.0001) %MON dynstat_uvel_sd              =   5.3479200153616E-03
(PID.TID 0000.0001) %MON dynstat_uvel_del2            =   1.7570082430833E-04
(PID.TID 0000.0001) %MON dynstat_vvel_max             =   0.0000000000000E+00
(PID.TID 0000.0001) %MON dynstat_vvel_min             =   0.0000000000000E+00
(PID.TID 0000.0001) %MON dynstat_vvel_mean            =   0.0000000000000E+00
(PID.TID 0000.0001) %MON dynstat_vvel_sd              =   0.0000000000000E+00
(PID.TID 0000.0001) %MON dynstat_vvel_del2            =   0.0000000000000E+00
(PID.TID 0000.0001) %MON dynstat_wvel_max             =   4.2506117985476E-03
(PID.TID 0000.0001) %MON dynstat_wvel_min             =  -2.7143343066952E-03
(PID.TID 0000.0001) %MON dynstat_wvel_mean            =   4.4021231317936E-21
(PID.TID 0000.0001) %MON dynstat_wvel_sd              =   7.7736214672431E-04
(PID.TID 0000.0001) %MON dynstat_wvel_del2            =   4.2452898804148E-05
(PID.TID 0000.0001) %MON dynstat_theta_max            =   4.9019285768377E-02
(PID.TID 0000.0001) %MON dynstat_theta_min            =  -4.7820714231623E-02
(PID.TID 0000.0001) %MON dynstat_theta_mean           =   1.5063240077587E-02
(PID.TID 0000.0001) %MON dynstat_theta_sd             =   2.7274302691516E-02
(PID.TID 0000.0001) %MON dynstat_theta_del2           =   8.9000418463205E-05
(PID.TID 0000.0001) %MON dynstat_salt_max             =   3.5000000000000E+01
(PID.TID 0000.0001) %MON dynstat_salt_min             =   0.0000000000000E+00
(PID.TID 0000.0001) %MON dynstat_salt_mean            =   3.3847052152665E+01
(PID.TID 0000.0001) %MON dynstat_salt_sd              =   6.2469101096520E+00
(PID.TID 0000.0001) %MON dynstat_salt_del2            =   5.6726094003241E-01
(PID.TID 0000.0001) %MON advcfl_uvel_max              =   5.3814083400049E-02
(PID.TID 0000.0001) %MON advcfl_vvel_max              =   0.0000000000000E+00
(PID.TID 0000.0001) %MON advcfl_wvel_max              =   2.1253058992738E-01
(PID.TID 0000.0001) %MON advcfl_W_hf_max              =   2.1253058992738E-01
(PID.TID 0000.0001) %MON pe_b_mean                    =   3.5838131692665E-11
(PID.TID 0000.0001) %MON ke_max                       =   2.5041531928340E-04
(PID.TID 0000.0001) %MON ke_mean                      =   1.3829058227744E-05
(PID.TID 0000.0001) %MON ke_vol                       =   6.6188141628594E+09
(PID.TID 0000.0001) %MON vort_r_min                   =   0.0000000000000E+00
(PID.TID 0000.0001) %MON vort_r_max                   =   0.0000000000000E+00
(PID.TID 0000.0001) %MON vort_a_mean                  =   0.0000000000000E+00
(PID.TID 0000.0001) %MON vort_a_sd                    =   0.0000000000000E+00
(PID.TID 0000.0001) %MON vort_p_mean                  =   0.0000000000000E+00
(PID.TID 0000.0001) %MON vort_p_sd                    =   0.0000000000000E+00
(PID.TID 0000.0001) %MON surfExpan_theta_mean         =   2.8505337361247E-13
(PID.TID 0000.0001) %MON surfExpan_salt_mean          =   5.4998609351117E-19
(PID.TID 0000.0001) // =======================================================
(PID.TID 0000.0001) // End MONITOR dynamic field statistics
(PID.TID 0000.0001) // =======================================================
 cg2d: Sum(rhs),rhsMax =  -1.22430060880974E-13  3.14858751385902E-04
 cg2d: Sum(rhs),rhsMax =  -1.21612572442920E-13  3.02967163317142E-04
 cg2d: Sum(rhs),rhsMax =  -1.28580522965049E-13  2.77247781481260E-04
 cg2d: Sum(rhs),rhsMax =  -1.25753140539642E-13  2.98699603182666E-04
 cg2d: Sum(rhs),rhsMax =  -1.06346789013889E-13  3.37198187476506E-04
(PID.TID 0000.0001)                    cg2d_init_res =    2.57246556778192E-01
(PID.TID 0000.0001)                       cg2d_iters =    58
(PID.TID 0000.0001)                         cg2d_res =    5.07723645602202E-19
(PID.TID 0000.0001) // =======================================================
(PID.TID 0000.0001) // Begin MONITOR dynamic field statistics
(PID.TID 0000.0001) // =======================================================
(PID.TID 0000.0001) %MON time_tsnumber                =                    40
(PID.TID 0000.0001) %MON time_secondsf                =   2.0000000000000E+04
(PID.TID 0000.0001) %MON dynstat_eta_max              =   1.1386349225171E-04
(PID.TID 0000.0001) %MON dynstat_eta_min              =  -1.0236255186065E-05
(PID.TID 0000.0001) %MON dynstat_eta_mean             =   1.7267902619178E-16
(PID.TID 0000.0001) %MON dynstat_eta_sd               =   2.7977196937348E-05
(PID.TID 0000.0001) %MON dynstat_eta_del2             =   9.3635484887822E-07
(PID.TID 0000.0001) %MON dynstat_uvel_max             =   2.2602631979400E-02
(PID.TID 0000.0001) %MON dynstat_uvel_min             =  -2.2891226905557E-02
(PID.TID 0000.0001) %MON dynstat_uvel_mean            =   8.6150177257285E-09
(PID.TID 0000.0001) %MON dynstat_uvel_sd              =   5.3663799857227E-03
(PID.TID 0000.0001) %MON dynstat_uvel_del2            =   2.0521742281234E-04
(PID.TID 0000.0001) %MON dynstat_vvel_max             =   0.0000000000000E+00
(PID.TID 0000.0001) %MON dynstat_vvel_min             =   0.0000000000000E+00
(PID.TID 0000.0001) %MON dynstat_vvel_mean            =   0.0000000000000E+00
(PID.TID 0000.0001) %MON dynstat_vvel_sd              =   0.0000000000000E+00
(PID.TID 0000.0001) %MON dynstat_vvel_del2            =   0.0000000000000E+00
(PID.TID 0000.0001) %MON dynstat_wvel_max             =   2.7507964845168E-03
(PID.TID 0000.0001) %MON dynstat_wvel_min             =  -2.6422174397399E-03
(PID.TID 0000.0001) %MON dynstat_wvel_mean            =   1.3561379325364E-20
(PID.TID 0000.0001) %MON dynstat_wvel_sd              =   6.8851420958027E-04
(PID.TID 0000.0001) %MON dynstat_wvel_del2            =   3.9550069254021E-05
(PID.TID 0000.0001) %MON dynstat_theta_max            =   4.8723665244200E-02
(PID.TID 0000.0001) %MON dynstat_theta_min            =  -4.8116334755800E-02
(PID.TID 0000.0001) %MON dynstat_theta_mean           =   1.5069562527591E-02
(PID.TID 0000.0001) %MON dynstat_theta_sd             =   2.7246705258895E-02
(PID.TID 0000.0001) %MON dynstat_theta_del2           =   1.0541191235429E-04
(PID.TID 0000.0001) %MON dynstat_salt_max             =   3.5000000000000E+01
(PID.TID 0000.0001) %MON dynstat_salt_min             =   0.0000000000000E+00
(PID.TID 0000.0001) %MON dynstat_salt_mean            =   3.3847052152665E+01
(PID.TID 0000.0001) %MON dynstat_salt_sd              =   6.2469101096520E+00
(PID.TID 0000.0001) %MON dynstat_salt_del2            =   5.6726094003241E-01
(PID.TID 0000.0001) %MON advcfl_uvel_max              =   5.2494918843571E-02
(PID.TID 0000.0001) %MON advcfl_vvel_max              =   0.0000000000000E+00
(PID.TID 0000.0001) %MON advcfl_wvel_max              =   1.3753982422584E-01
(PID.TID 0000.0001) %MON advcfl_W_hf_max              =   1.3753982422584E-01
(PID.TID 0000.0001) %MON pe_b_mean                    =   3.7308779846091E-11
(PID.TID 0000.0001) %MON ke_max                       =   2.5520019847848E-04
(PID.TID 0000.0001) %MON ke_mean                      =   1.3924693374106E-05
(PID.TID 0000.0001) %MON ke_vol                       =   6.6188141628594E+09
(PID.TID 0000.0001) %MON vort_r_min                   =   0.0000000000000E+00
(PID.TID 0000.0001) %MON vort_r_max                   =   0.0000000000000E+00
(PID.TID 0000.0001) %MON vort_a_mean                  =   0.0000000000000E+00
(PID.TID 0000.0001) %MON vort_a_sd                    =   0.0000000000000E+00
(PID.TID 0000.0001) %MON vort_p_mean                  =   0.0000000000000E+00
(PID.TID 0000.0001) %MON vort_p_sd                    =   0.0000000000000E+00
(PID.TID 0000.0001) %MON surfExpan_theta_mean         =   6.5194340449992E-13
(PID.TID 0000.0001) %MON surfExpan_salt_mean          =   5.4499938538305E-19
(PID.TID 0000.0001) // =======================================================
(PID.TID 0000.0001) // End MONITOR dynamic field statistics
(PID.TID 0000.0001) // =======================================================
 cg2d: Sum(rhs),rhsMax =  -1.07912376950958E-13  3.68523900972659E-04
 cg2d: Sum(rhs),rhsMax =  -9.76631969740183E-14  4.17467651544155E-04
 cg2d: Sum(rhs),rhsMax =  -8.79178457466323E-14  4.51345116144582E-04
 cg2d: Sum(rhs),rhsMax =  -7.46096977602417E-14  4.97944016192012E-04
 cg2d: Sum(rhs),rhsMax =  -6.70183309889327E-14  5.32005914759271E-04
(PID.TID 0000.0001)                    cg2d_init_res =    1.31550555819800E-01
(PID.TID 0000.0001)                       cg2d_iters =    58
(PID.TID 0000.0001)                         cg2d_res =    7.23381119257847E-20
(PID.TID 0000.0001) // =======================================================
(PID.TID 0000.0001) // Begin MONITOR dynamic field statistics
(PID.TID 0000.0001) // =======================================================
(PID.TID 0000.0001) %MON time_tsnumber                =                    45
(PID.TID 0000.0001) %MON time_secondsf                =   2.2500000000000E+04
(PID.TID 0000.0001) %MON dynstat_eta_max              =   1.1430060808084E-04
(PID.TID 0000.0001) %MON dynstat_eta_min              =  -1.0939282251629E-05
(PID.TID 0000.0001) %MON dynstat_eta_mean             =   1.6261684135256E-16
(PID.TID 0000.0001) %MON dynstat_eta_sd               =   2.7779248885401E-05
(PID.TID 0000.0001) %MON dynstat_eta_del2             =   8.5506693053412E-07
(PID.TID 0000.0001) %MON dynstat_uvel_max             =   2.2698461696016E-02
(PID.TID 0000.0001) %MON dynstat_uvel_min             =  -2.3007469605347E-02
(PID.TID 0000.0001) %MON dynstat_uvel_mean            =  -1.2722377836053E-09
(PID.TID 0000.0001) %MON dynstat_uvel_sd              =   5.3478919999015E-03
(PID.TID 0000.0001) %MON dynstat_uvel_del2            =   2.1502240690056E-04
(PID.TID 0000.0001) %MON dynstat_vvel_max             =   0.0000000000000E+00
(PID.TID 0000.0001) %MON dynstat_vvel_min             =   0.0000000000000E+00
(PID.TID 0000.0001) %MON dynstat_vvel_mean            =   0.0000000000000E+00
(PID.TID 0000.0001) %MON dynstat_vvel_sd              =   0.0000000000000E+00
(PID.TID 0000.0001) %MON dynstat_vvel_del2            =   0.0000000000000E+00
(PID.TID 0000.0001) %MON dynstat_wvel_max             =   3.1969869869514E-03
(PID.TID 0000.0001) %MON dynstat_wvel_min             =  -2.3897546631818E-03
(PID.TID 0000.0001) %MON dynstat_wvel_mean            =  -2.1620104735986E-20
(PID.TID 0000.0001) %MON dynstat_wvel_sd              =   7.2211126276271E-04
(PID.TID 0000.0001) %MON dynstat_wvel_del2            =   6.7579028401705E-05
(PID.TID 0000.0001) %MON dynstat_theta_max            =   4.8415755644265E-02
(PID.TID 0000.0001) %MON dynstat_theta_min            =  -4.8449289534453E-02
(PID.TID 0000.0001) %MON dynstat_theta_mean           =   1.5005502928396E-02
(PID.TID 0000.0001) %MON dynstat_theta_sd             =   2.7259140747414E-02
(PID.TID 0000.0001) %MON dynstat_theta_del2           =   1.2153814330658E-04
(PID.TID 0000.0001) %MON dynstat_salt_max             =   3.5000000000000E+01
(PID.TID 0000.0001) %MON dynstat_salt_min             =   0.0000000000000E+00
(PID.TID 0000.0001) %MON dynstat_salt_mean            =   3.3847052152665E+01
(PID.TID 0000.0001) %MON dynstat_salt_sd              =   6.2469101096520E+00
(PID.TID 0000.0001) %MON dynstat_salt_del2            =   5.6726094003241E-01
(PID.TID 0000.0001) %MON advcfl_uvel_max              =   5.2761490448352E-02
(PID.TID 0000.0001) %MON advcfl_vvel_max              =   0.0000000000000E+00
(PID.TID 0000.0001) %MON advcfl_wvel_max              =   1.5984934934757E-01
(PID.TID 0000.0001) %MON advcfl_W_hf_max              =   1.5984934934757E-01
(PID.TID 0000.0001) %MON pe_b_mean                    =   3.6782703275730E-11
(PID.TID 0000.0001) %MON ke_max                       =   2.4859377628726E-04
(PID.TID 0000.0001) %MON ke_mean                      =   1.3828913386199E-05
(PID.TID 0000.0001) %MON ke_vol                       =   6.6188141628594E+09
(PID.TID 0000.0001) %MON vort_r_min                   =   0.0000000000000E+00
(PID.TID 0000.0001) %MON vort_r_max                   =   0.0000000000000E+00
(PID.TID 0000.0001) %MON vort_a_mean                  =   0.0000000000000E+00
(PID.TID 0000.0001) %MON vort_a_sd                    =   0.0000000000000E+00
(PID.TID 0000.0001) %MON vort_p_mean                  =   0.0000000000000E+00
(PID.TID 0000.0001) %MON vort_p_sd                    =   0.0000000000000E+00
(PID.TID 0000.0001) %MON surfExpan_theta_mean         =  -1.8365923963060E-12
(PID.TID 0000.0001) %MON surfExpan_salt_mean          =  -4.0889625769111E-19
(PID.TID 0000.0001) // =======================================================
(PID.TID 0000.0001) // End MONITOR dynamic field statistics
(PID.TID 0000.0001) // =======================================================
 cg2d: Sum(rhs),rhsMax =  -6.56863886200343E-14  5.73912075704145E-04
 cg2d: Sum(rhs),rhsMax =  -5.55764202020415E-14  6.05876331632881E-04
 cg2d: Sum(rhs),rhsMax =  -5.07412037734079E-14  6.40987869708882E-04
 cg2d: Sum(rhs),rhsMax =  -4.71265008353955E-14  6.68935444578990E-04
 cg2d: Sum(rhs),rhsMax =  -4.67038517235063E-14  6.95630597662767E-04
(PID.TID 0000.0001)                    cg2d_init_res =    9.14631643538247E-02
(PID.TID 0000.0001)                       cg2d_iters =    58
(PID.TID 0000.0001)                         cg2d_res =    5.81520046111973E-19
(PID.TID 0000.0001) // =======================================================
(PID.TID 0000.0001) // Begin MONITOR dynamic field statistics
(PID.TID 0000.0001) // =======================================================
(PID.TID 0000.0001) %MON time_tsnumber                =                    50
(PID.TID 0000.0001) %MON time_secondsf                =   2.5000000000000E+04
(PID.TID 0000.0001) %MON dynstat_eta_max              =   1.1075926886589E-04
(PID.TID 0000.0001) %MON dynstat_eta_min              =  -3.0627887795444E-05
(PID.TID 0000.0001) %MON dynstat_eta_mean             =   1.4895031289962E-16
(PID.TID 0000.0001) %MON dynstat_eta_sd               =   2.7744440308669E-05
(PID.TID 0000.0001) %MON dynstat_eta_del2             =   1.2491621933216E-06
(PID.TID 0000.0001) %MON dynstat_uvel_max             =   2.3069175744284E-02
(PID.TID 0000.0001) %MON dynstat_uvel_min             =  -2.3311909522623E-02
(PID.TID 0000.0001) %MON dynstat_uvel_mean            =   4.2985997898537E-08
(PID.TID 0000.0001) %MON dynstat_uvel_sd              =   5.4425577494116E-03
(PID.TID 0000.0001) %MON dynstat_uvel_del2            =   2.2232804702825E-04
(PID.TID 0000.0001) %MON dynstat_vvel_max             =   0.0000000000000E+00
(PID.TID 0000.0001) %MON dynstat_vvel_min             =   0.0000000000000E+00
(PID.TID 0000.0001) %MON dynstat_vvel_mean            =   0.0000000000000E+00
(PID.TID 0000.0001) %MON dynstat_vvel_sd              =   0.0000000000000E+00
(PID.TID 0000.0001) %MON dynstat_vvel_del2            =   0.0000000000000E+00
(PID.TID 0000.0001) %MON dynstat_wvel_max             =   3.2066299036333E-03
(PID.TID 0000.0001) %MON dynstat_wvel_min             =  -2.5437838126213E-03
(PID.TID 0000.0001) %MON dynstat_wvel_mean            =  -1.3596880318363E-20
(PID.TID 0000.0001) %MON dynstat_wvel_sd              =   8.6820432089948E-04
(PID.TID 0000.0001) %MON dynstat_wvel_del2            =   9.1767736375204E-05
(PID.TID 0000.0001) %MON dynstat_theta_max            =   4.8272091849416E-02
(PID.TID 0000.0001) %MON dynstat_theta_min            =  -4.8778643298655E-02
(PID.TID 0000.0001) %MON dynstat_theta_mean           =   1.4879003734748E-02
(PID.TID 0000.0001) %MON dynstat_theta_sd             =   2.7315543225448E-02
(PID.TID 0000.0001) %MON dynstat_theta_del2           =   1.2643681360598E-04
(PID.TID 0000.0001) %MON dynstat_salt_max             =   3.5000000000000E+01
(PID.TID 0000.0001) %MON dynstat_salt_min             =   0.0000000000000E+00
(PID.TID 0000.0001) %MON dynstat_salt_mean            =   3.3847052152665E+01
(PID.TID 0000.0001) %MON dynstat_salt_sd              =   6.2469101096520E+00
(PID.TID 0000.0001) %MON dynstat_salt_del2            =   5.6726094003241E-01
(PID.TID 0000.0001) %MON advcfl_uvel_max              =   5.3459642138347E-02
(PID.TID 0000.0001) %MON advcfl_vvel_max              =   0.0000000000000E+00
(PID.TID 0000.0001) %MON advcfl_wvel_max              =   1.6033149518167E-01
(PID.TID 0000.0001) %MON advcfl_W_hf_max              =   1.6033149518167E-01
(PID.TID 0000.0001) %MON pe_b_mean                    =   3.6690580455132E-11
(PID.TID 0000.0001) %MON ke_max                       =   2.3754613610518E-04
(PID.TID 0000.0001) %MON ke_mean                      =   1.4322831752235E-05
(PID.TID 0000.0001) %MON ke_vol                       =   6.6188141628594E+09
(PID.TID 0000.0001) %MON vort_r_min                   =   0.0000000000000E+00
(PID.TID 0000.0001) %MON vort_r_max                   =   0.0000000000000E+00
(PID.TID 0000.0001) %MON vort_a_mean                  =   0.0000000000000E+00
(PID.TID 0000.0001) %MON vort_a_sd                    =   0.0000000000000E+00
(PID.TID 0000.0001) %MON vort_p_mean                  =   0.0000000000000E+00
(PID.TID 0000.0001) %MON vort_p_sd                    =   0.0000000000000E+00
(PID.TID 0000.0001) %MON surfExpan_theta_mean         =   8.7881497665518E-13
(PID.TID 0000.0001) %MON surfExpan_salt_mean          =  -3.2220624650440E-19
(PID.TID 0000.0001) // =======================================================
(PID.TID 0000.0001) // End MONITOR dynamic field statistics
(PID.TID 0000.0001) // =======================================================
 cg2d: Sum(rhs),rhsMax =  -4.38537417100579E-14  7.18169737146155E-04
 cg2d: Sum(rhs),rhsMax =  -4.76833199661297E-14  7.35378536727030E-04
 cg2d: Sum(rhs),rhsMax =  -4.66958286274299E-14  7.51633341525955E-04
 cg2d: Sum(rhs),rhsMax =  -4.59608479747020E-14  7.58766710230918E-04
 cg2d: Sum(rhs),rhsMax =  -4.42036069748554E-14  7.68228754704346E-04
(PID.TID 0000.0001)                    cg2d_init_res =    8.35386901009033E-02
(PID.TID 0000.0001)                       cg2d_iters =    58
(PID.TID 0000.0001)                         cg2d_res =    7.37115716484279E-19
(PID.TID 0000.0001) // =======================================================
(PID.TID 0000.0001) // Begin MONITOR dynamic field statistics
(PID.TID 0000.0001) // =======================================================
(PID.TID 0000.0001) %MON time_tsnumber                =                    55
(PID.TID 0000.0001) %MON time_secondsf                =   2.7500000000000E+04
(PID.TID 0000.0001) %MON dynstat_eta_max              =   1.1441458689249E-04
(PID.TID 0000.0001) %MON dynstat_eta_min              =  -8.7092581609124E-05
(PID.TID 0000.0001) %MON dynstat_eta_mean             =   1.4478177426752E-16
(PID.TID 0000.0001) %MON dynstat_eta_sd               =   2.9708965912607E-05
(PID.TID 0000.0001) %MON dynstat_eta_del2             =   1.7665073117897E-06
(PID.TID 0000.0001) %MON dynstat_uvel_max             =   2.2778050975816E-02
(PID.TID 0000.0001) %MON dynstat_uvel_min             =  -2.2956020397019E-02
(PID.TID 0000.0001) %MON dynstat_uvel_mean            =   3.4410369135111E-08
(PID.TID 0000.0001) %MON dynstat_uvel_sd              =   5.7330695561900E-03
(PID.TID 0000.0001) %MON dynstat_uvel_del2            =   2.2217299439577E-04
(PID.TID 0000.0001) %MON dynstat_vvel_max             =   0.0000000000000E+00
(PID.TID 0000.0001) %MON dynstat_vvel_min             =   0.0000000000000E+00
(PID.TID 0000.0001) %MON dynstat_vvel_mean            =   0.0000000000000E+00
(PID.TID 0000.0001) %MON dynstat_vvel_sd              =   0.0000000000000E+00
(PID.TID 0000.0001) %MON dynstat_vvel_del2            =   0.0000000000000E+00
(PID.TID 0000.0001) %MON dynstat_wvel_max             =   3.2919569190221E-03
(PID.TID 0000.0001) %MON dynstat_wvel_min             =  -4.5670763291970E-03
(PID.TID 0000.0001) %MON dynstat_wvel_mean            =  -5.6801588797337E-22
(PID.TID 0000.0001) %MON dynstat_wvel_sd              =   1.0435469753347E-03
(PID.TID 0000.0001) %MON dynstat_wvel_del2            =   1.0890436062715E-04
(PID.TID 0000.0001) %MON dynstat_theta_max            =   4.8133584010659E-02
(PID.TID 0000.0001) %MON dynstat_theta_min            =  -4.9063903507753E-02
(PID.TID 0000.0001) %MON dynstat_theta_mean           =   1.4705874217986E-02
(PID.TID 0000.0001) %MON dynstat_theta_sd             =   2.7410302593885E-02
(PID.TID 0000.0001) %MON dynstat_theta_del2           =   1.2659774546715E-04
(PID.TID 0000.0001) %MON dynstat_salt_max             =   3.5000000000000E+01
(PID.TID 0000.0001) %MON dynstat_salt_min             =   0.0000000000000E+00
(PID.TID 0000.0001) %MON dynstat_salt_mean            =   3.3847052152665E+01
(PID.TID 0000.0001) %MON dynstat_salt_sd              =   6.2469101096520E+00
(PID.TID 0000.0001) %MON dynstat_salt_del2            =   5.6726094003241E-01
(PID.TID 0000.0001) %MON advcfl_uvel_max              =   5.2643505421735E-02
(PID.TID 0000.0001) %MON advcfl_vvel_max              =   0.0000000000000E+00
(PID.TID 0000.0001) %MON advcfl_wvel_max              =   2.2835381645985E-01
(PID.TID 0000.0001) %MON advcfl_W_hf_max              =   2.2835381645985E-01
(PID.TID 0000.0001) %MON pe_b_mean                    =   4.2070504214595E-11
(PID.TID 0000.0001) %MON ke_max                       =   2.4694490023704E-04
(PID.TID 0000.0001) %MON ke_mean                      =   1.5892683112832E-05
(PID.TID 0000.0001) %MON ke_vol                       =   6.6188141628594E+09
(PID.TID 0000.0001) %MON vort_r_min                   =   0.0000000000000E+00
(PID.TID 0000.0001) %MON vort_r_max                   =   0.0000000000000E+00
(PID.TID 0000.0001) %MON vort_a_mean                  =   0.0000000000000E+00
(PID.TID 0000.0001) %MON vort_a_sd                    =   0.0000000000000E+00
(PID.TID 0000.0001) %MON vort_p_mean                  =   0.0000000000000E+00
(PID.TID 0000.0001) %MON vort_p_sd                    =   0.0000000000000E+00
(PID.TID 0000.0001) %MON surfExpan_theta_mean         =  -1.1699716890792E-12
(PID.TID 0000.0001) %MON surfExpan_salt_mean          =  -2.6635477024912E-20
(PID.TID 0000.0001) // =======================================================
(PID.TID 0000.0001) // End MONITOR dynamic field statistics
(PID.TID 0000.0001) // =======================================================
 cg2d: Sum(rhs),rhsMax =  -3.90933758889073E-14  7.64963594599418E-04
 cg2d: Sum(rhs),rhsMax =  -4.02262316338831E-14  7.67275824714570E-04
 cg2d: Sum(rhs),rhsMax =  -4.31214038001254E-14  7.53324583732986E-04
 cg2d: Sum(rhs),rhsMax =  -3.88083662428151E-14  7.48059089597865E-04
 cg2d: Sum(rhs),rhsMax =  -3.71823882447386E-14  7.23025543101207E-04
(PID.TID 0000.0001)                    cg2d_init_res =    1.02215809437645E-01
(PID.TID 0000.0001)                       cg2d_iters =    58
(PID.TID 0000.0001)                         cg2d_res =    2.11712567348477E-19
(PID.TID 0000.0001) // =======================================================
(PID.TID 0000.0001) // Begin MONITOR dynamic field statistics
(PID.TID 0000.0001) // =======================================================
(PID.TID 0000.0001) %MON time_tsnumber                =                    60
(PID.TID 0000.0001) %MON time_secondsf                =   3.0000000000000E+04
(PID.TID 0000.0001) %MON dynstat_eta_max              =   1.1632642428598E-04
(PID.TID 0000.0001) %MON dynstat_eta_min              =  -1.3586796378310E-04
(PID.TID 0000.0001) %MON dynstat_eta_mean             =   1.2401331729366E-16
(PID.TID 0000.0001) %MON dynstat_eta_sd               =   3.3485078171939E-05
(PID.TID 0000.0001) %MON dynstat_eta_del2             =   2.1351579028126E-06
(PID.TID 0000.0001) %MON dynstat_uvel_max             =   2.2418187834276E-02
(PID.TID 0000.0001) %MON dynstat_uvel_min             =  -2.2537756721698E-02
(PID.TID 0000.0001) %MON dynstat_uvel_mean            =   5.2344769685901E-08
(PID.TID 0000.0001) %MON dynstat_uvel_sd              =   6.1833631930257E-03
(PID.TID 0000.0001) %MON dynstat_uvel_del2            =   2.1849271466537E-04
(PID.TID 0000.0001) %MON dynstat_vvel_max             =   0.0000000000000E+00
(PID.TID 0000.0001) %MON dynstat_vvel_min             =   0.0000000000000E+00
(PID.TID 0000.0001) %MON dynstat_vvel_mean            =   0.0000000000000E+00
(PID.TID 0000.0001) %MON dynstat_vvel_sd              =   0.0000000000000E+00
(PID.TID 0000.0001) %MON dynstat_vvel_del2            =   0.0000000000000E+00
(PID.TID 0000.0001) %MON dynstat_wvel_max             =   3.3121616622408E-03
(PID.TID 0000.0001) %MON dynstat_wvel_min             =  -6.0288676758336E-03
(PID.TID 0000.0001) %MON dynstat_wvel_mean            =   4.6612803806815E-20
(PID.TID 0000.0001) %MON dynstat_wvel_sd              =   1.1815249351601E-03
(PID.TID 0000.0001) %MON dynstat_wvel_del2            =   1.1458127700703E-04
(PID.TID 0000.0001) %MON dynstat_theta_max            =   4.8026380564824E-02
(PID.TID 0000.0001) %MON dynstat_theta_min            =  -4.9269998722252E-02
(PID.TID 0000.0001) %MON dynstat_theta_mean           =   1.4507599684624E-02
(PID.TID 0000.0001) %MON dynstat_theta_sd             =   2.7528160458055E-02
(PID.TID 0000.0001) %MON dynstat_theta_del2           =   1.2775955693248E-04
(PID.TID 0000.0001) %MON dynstat_salt_max             =   3.5000000000000E+01
(PID.TID 0000.0001) %MON dynstat_salt_min             =   0.0000000000000E+00
(PID.TID 0000.0001) %MON dynstat_salt_mean            =   3.3847052152665E+01
(PID.TID 0000.0001) %MON dynstat_salt_sd              =   6.2469101096520E+00
(PID.TID 0000.0001) %MON dynstat_salt_del2            =   5.6726094003241E-01
(PID.TID 0000.0001) %MON advcfl_uvel_max              =   5.1684329324194E-02
(PID.TID 0000.0001) %MON advcfl_vvel_max              =   0.0000000000000E+00
(PID.TID 0000.0001) %MON advcfl_wvel_max              =   3.0144338379168E-01
(PID.TID 0000.0001) %MON advcfl_W_hf_max              =   3.0144338379168E-01
(PID.TID 0000.0001) %MON pe_b_mean                    =   5.3444778367691E-11
(PID.TID 0000.0001) %MON ke_max                       =   2.4616953712650E-04
(PID.TID 0000.0001) %MON ke_mean                      =   1.8487249876176E-05
(PID.TID 0000.0001) %MON ke_vol                       =   6.6188141628594E+09
(PID.TID 0000.0001) %MON vort_r_min                   =   0.0000000000000E+00
(PID.TID 0000.0001) %MON vort_r_max                   =   0.0000000000000E+00
(PID.TID 0000.0001) %MON vort_a_mean                  =   0.0000000000000E+00
(PID.TID 0000.0001) %MON vort_a_sd                    =   0.0000000000000E+00
(PID.TID 0000.0001) %MON vort_p_mean                  =   0.0000000000000E+00
(PID.TID 0000.0001) %MON vort_p_sd                    =   0.0000000000000E+00
(PID.TID 0000.0001) %MON surfExpan_theta_mean         =  -1.3342403532160E-13
(PID.TID 0000.0001) %MON surfExpan_salt_mean          =   9.3776004335743E-19
(PID.TID 0000.0001) // =======================================================
(PID.TID 0000.0001) // End MONITOR dynamic field statistics
(PID.TID 0000.0001) // =======================================================
 cg2d: Sum(rhs),rhsMax =  -3.95012256411420E-14  7.09609659315788E-04
 cg2d: Sum(rhs),rhsMax =  -4.01908324329514E-14  6.72987932881086E-04
 cg2d: Sum(rhs),rhsMax =  -4.40552542363415E-14  6.50819959310645E-04
 cg2d: Sum(rhs),rhsMax =  -4.29276839769566E-14  6.02205319432180E-04
 cg2d: Sum(rhs),rhsMax =  -4.08473168483914E-14  5.70928815228135E-04
(PID.TID 0000.0001)                    cg2d_init_res =    1.19647975105075E-01
(PID.TID 0000.0001)                       cg2d_iters =    58
(PID.TID 0000.0001)                         cg2d_res =    1.35193730361110E-18
(PID.TID 0000.0001) // =======================================================
(PID.TID 0000.0001) // Begin MONITOR dynamic field statistics
(PID.TID 0000.0001) // =======================================================
(PID.TID 0000.0001) %MON time_tsnumber                =                    65
(PID.TID 0000.0001) %MON time_secondsf                =   3.2500000000000E+04
(PID.TID 0000.0001) %MON dynstat_eta_max              =   1.1530852465286E-04
(PID.TID 0000.0001) %MON dynstat_eta_min              =  -1.7121266900538E-04
(PID.TID 0000.0001) %MON dynstat_eta_mean             =   1.1635461737300E-16
(PID.TID 0000.0001) %MON dynstat_eta_sd               =   3.8590834616151E-05
(PID.TID 0000.0001) %MON dynstat_eta_del2             =   2.4376039081129E-06
(PID.TID 0000.0001) %MON dynstat_uvel_max             =   2.3020874304323E-02
(PID.TID 0000.0001) %MON dynstat_uvel_min             =  -2.3069945832883E-02
(PID.TID 0000.0001) %MON dynstat_uvel_mean            =   6.5816947521829E-08
(PID.TID 0000.0001) %MON dynstat_uvel_sd              =   6.6797157788495E-03
(PID.TID 0000.0001) %MON dynstat_uvel_del2            =   2.1398447684947E-04
(PID.TID 0000.0001) %MON dynstat_vvel_max             =   0.0000000000000E+00
(PID.TID 0000.0001) %MON dynstat_vvel_min             =   0.0000000000000E+00
(PID.TID 0000.0001) %MON dynstat_vvel_mean            =   0.0000000000000E+00
(PID.TID 0000.0001) %MON dynstat_vvel_sd              =   0.0000000000000E+00
(PID.TID 0000.0001) %MON dynstat_vvel_del2            =   0.0000000000000E+00
(PID.TID 0000.0001) %MON dynstat_wvel_max             =   3.1980608125117E-03
(PID.TID 0000.0001) %MON dynstat_wvel_min             =  -6.7494372846712E-03
(PID.TID 0000.0001) %MON dynstat_wvel_mean            =   3.8802585347181E-20
(PID.TID 0000.0001) %MON dynstat_wvel_sd              =   1.2476691117831E-03
(PID.TID 0000.0001) %MON dynstat_wvel_del2            =   1.1384289687216E-04
(PID.TID 0000.0001) %MON dynstat_theta_max            =   4.7914085933823E-02
(PID.TID 0000.0001) %MON dynstat_theta_min            =  -4.9371590477079E-02
(PID.TID 0000.0001) %MON dynstat_theta_mean           =   1.4308527155379E-02
(PID.TID 0000.0001) %MON dynstat_theta_sd             =   2.7647761104280E-02
(PID.TID 0000.0001) %MON dynstat_theta_del2           =   1.2789265319819E-04
(PID.TID 0000.0001) %MON dynstat_salt_max             =   3.5000000000000E+01
(PID.TID 0000.0001) %MON dynstat_salt_min             =   0.0000000000000E+00
(PID.TID 0000.0001) %MON dynstat_salt_mean            =   3.3847052152665E+01
(PID.TID 0000.0001) %MON dynstat_salt_sd              =   6.2469101096520E+00
(PID.TID 0000.0001) %MON dynstat_salt_del2            =   5.6726094003241E-01
(PID.TID 0000.0001) %MON advcfl_uvel_max              =   5.2904763000221E-02
(PID.TID 0000.0001) %MON advcfl_vvel_max              =   0.0000000000000E+00
(PID.TID 0000.0001) %MON advcfl_wvel_max              =   3.3747186423356E-01
(PID.TID 0000.0001) %MON advcfl_W_hf_max              =   3.3747186423356E-01
(PID.TID 0000.0001) %MON pe_b_mean                    =   7.0985719513677E-11
(PID.TID 0000.0001) %MON ke_max                       =   2.3379853932195E-04
(PID.TID 0000.0001) %MON ke_mean                      =   2.1574402107636E-05
(PID.TID 0000.0001) %MON ke_vol                       =   6.6188141628594E+09
(PID.TID 0000.0001) %MON vort_r_min                   =   0.0000000000000E+00
(PID.TID 0000.0001) %MON vort_r_max                   =   0.0000000000000E+00
(PID.TID 0000.0001) %MON vort_a_mean                  =   0.0000000000000E+00
(PID.TID 0000.0001) %MON vort_a_sd                    =   0.0000000000000E+00
(PID.TID 0000.0001) %MON vort_p_mean                  =   0.0000000000000E+00
(PID.TID 0000.0001) %MON vort_p_sd                    =   0.0000000000000E+00
(PID.TID 0000.0001) %MON surfExpan_theta_mean         =   2.5579637072265E-15
(PID.TID 0000.0001) %MON surfExpan_salt_mean          =   6.8215543517889E-20
(PID.TID 0000.0001) // =======================================================
(PID.TID 0000.0001) // End MONITOR dynamic field statistics
(PID.TID 0000.0001) // =======================================================
 cg2d: Sum(rhs),rhsMax =  -5.17509212566436E-14  5.10348417518087E-04
 cg2d: Sum(rhs),rhsMax =  -5.27504472394580E-14  4.70222276058704E-04
 cg2d: Sum(rhs),rhsMax =  -6.75219428980522E-14  3.98472411820278E-04
 cg2d: Sum(rhs),rhsMax =  -6.86072292727102E-14  3.50650414373477E-04
 cg2d: Sum(rhs),rhsMax =  -6.36509074614100E-14  3.34990612512617E-04
(PID.TID 0000.0001)                    cg2d_init_res =    3.46498055161892E-01
(PID.TID 0000.0001)                       cg2d_iters =    58
(PID.TID 0000.0001)                         cg2d_res =    2.12317383717272E-18
(PID.TID 0000.0001) // =======================================================
(PID.TID 0000.0001) // Begin MONITOR dynamic field statistics
(PID.TID 0000.0001) // =======================================================
(PID.TID 0000.0001) %MON time_tsnumber                =                    70
(PID.TID 0000.0001) %MON time_secondsf                =   3.5000000000000E+04
(PID.TID 0000.0001) %MON dynstat_eta_max              =   1.1739499057747E-04
(PID.TID 0000.0001) %MON dynstat_eta_min              =  -1.8216479624979E-04
(PID.TID 0000.0001) %MON dynstat_eta_mean             =   9.6682310996745E-17
(PID.TID 0000.0001) %MON dynstat_eta_sd               =   4.3415515646002E-05
(PID.TID 0000.0001) %MON dynstat_eta_del2             =   2.5300620404577E-06
(PID.TID 0000.0001) %MON dynstat_uvel_max             =   2.2725295005345E-02
(PID.TID 0000.0001) %MON dynstat_uvel_min             =  -2.2882648850336E-02
(PID.TID 0000.0001) %MON dynstat_uvel_mean            =   5.9584878604370E-08
(PID.TID 0000.0001) %MON dynstat_uvel_sd              =   7.1013122809144E-03
(PID.TID 0000.0001) %MON dynstat_uvel_del2            =   2.2030421082267E-04
(PID.TID 0000.0001) %MON dynstat_vvel_max             =   0.0000000000000E+00
(PID.TID 0000.0001) %MON dynstat_vvel_min             =   0.0000000000000E+00
(PID.TID 0000.0001) %MON dynstat_vvel_mean            =   0.0000000000000E+00
(PID.TID 0000.0001) %MON dynstat_vvel_sd              =   0.0000000000000E+00
(PID.TID 0000.0001) %MON dynstat_vvel_del2            =   0.0000000000000E+00
(PID.TID 0000.0001) %MON dynstat_wvel_max             =   3.3003880988612E-03
(PID.TID 0000.0001) %MON dynstat_wvel_min             =  -6.6401944142330E-03
(PID.TID 0000.0001) %MON dynstat_wvel_mean            =   3.1027867880545E-20
(PID.TID 0000.0001) %MON dynstat_wvel_sd              =   1.2345782330293E-03
(PID.TID 0000.0001) %MON dynstat_wvel_del2            =   1.0100080041745E-04
(PID.TID 0000.0001) %MON dynstat_theta_max            =   4.7789441794749E-02
(PID.TID 0000.0001) %MON dynstat_theta_min            =  -4.9356188530100E-02
(PID.TID 0000.0001) %MON dynstat_theta_mean           =   1.4132902620351E-02
(PID.TID 0000.0001) %MON dynstat_theta_sd             =   2.7747325658452E-02
(PID.TID 0000.0001) %MON dynstat_theta_del2           =   1.2404787388642E-04
(PID.TID 0000.0001) %MON dynstat_salt_max             =   3.5000000000000E+01
(PID.TID 0000.0001) %MON dynstat_salt_min             =   0.0000000000000E+00
(PID.TID 0000.0001) %MON dynstat_salt_mean            =   3.3847052152665E+01
(PID.TID 0000.0001) %MON dynstat_salt_sd              =   6.2469101096520E+00
(PID.TID 0000.0001) %MON dynstat_salt_del2            =   5.6726094003241E-01
(PID.TID 0000.0001) %MON advcfl_uvel_max              =   5.2475247363553E-02
(PID.TID 0000.0001) %MON advcfl_vvel_max              =   0.0000000000000E+00
(PID.TID 0000.0001) %MON advcfl_wvel_max              =   3.3200972071165E-01
(PID.TID 0000.0001) %MON advcfl_W_hf_max              =   3.3200972071165E-01
(PID.TID 0000.0001) %MON pe_b_mean                    =   8.9844722809541E-11
(PID.TID 0000.0001) %MON ke_max                       =   2.5538831143169E-04
(PID.TID 0000.0001) %MON ke_mean                      =   2.4383723169163E-05
(PID.TID 0000.0001) %MON ke_vol                       =   6.6188141628594E+09
(PID.TID 0000.0001) %MON vort_r_min                   =   0.0000000000000E+00
(PID.TID 0000.0001) %MON vort_r_max                   =   0.0000000000000E+00
(PID.TID 0000.0001) %MON vort_a_mean                  =   0.0000000000000E+00
(PID.TID 0000.0001) %MON vort_a_sd                    =   0.0000000000000E+00
(PID.TID 0000.0001) %MON vort_p_mean                  =   0.0000000000000E+00
(PID.TID 0000.0001) %MON vort_p_sd                    =   0.0000000000000E+00
(PID.TID 0000.0001) %MON surfExpan_theta_mean         =  -3.1335485542401E-13
(PID.TID 0000.0001) %MON surfExpan_salt_mean          =  -1.3756686202654E-19
(PID.TID 0000.0001) // =======================================================
(PID.TID 0000.0001) // End MONITOR dynamic field statistics
(PID.TID 0000.0001) // =======================================================
 cg2d: Sum(rhs),rhsMax =  -5.95996776237007E-14  3.62758602564167E-04
 cg2d: Sum(rhs),rhsMax =  -4.88541498921968E-14  4.06813106516536E-04
 cg2d: Sum(rhs),rhsMax =  -3.64940282854276E-14  4.27720353747347E-04
 cg2d: Sum(rhs),rhsMax =  -2.71753106129147E-14  4.66863932028437E-04
 cg2d: Sum(rhs),rhsMax =  -3.02331944201928E-14  4.76632511684609E-04
(PID.TID 0000.0001)                    cg2d_init_res =    1.79288752142213E-01
(PID.TID 0000.0001)                       cg2d_iters =    58
(PID.TID 0000.0001)                         cg2d_res =    1.23635310362850E-18
(PID.TID 0000.0001) // =======================================================
(PID.TID 0000.0001) // Begin MONITOR dynamic field statistics
(PID.TID 0000.0001) // =======================================================
(PID.TID 0000.0001) %MON time_tsnumber                =                    75
(PID.TID 0000.0001) %MON time_secondsf                =   3.7500000000000E+04
(PID.TID 0000.0001) %MON dynstat_eta_max              =   1.1875198197738E-04
(PID.TID 0000.0001) %MON dynstat_eta_min              =  -1.7817375733202E-04
(PID.TID 0000.0001) %MON dynstat_eta_mean             =   6.5012870699693E-17
(PID.TID 0000.0001) %MON dynstat_eta_sd               =   4.6936835107602E-05
(PID.TID 0000.0001) %MON dynstat_eta_del2             =   2.4113383094150E-06
(PID.TID 0000.0001) %MON dynstat_uvel_max             =   2.2680636005868E-02
(PID.TID 0000.0001) %MON dynstat_uvel_min             =  -2.3291927407169E-02
(PID.TID 0000.0001) %MON dynstat_uvel_mean            =   7.6935006197423E-08
(PID.TID 0000.0001) %MON dynstat_uvel_sd              =   7.3678032686652E-03
(PID.TID 0000.0001) %MON dynstat_uvel_del2            =   2.5102498346999E-04
(PID.TID 0000.0001) %MON dynstat_vvel_max             =   0.0000000000000E+00
(PID.TID 0000.0001) %MON dynstat_vvel_min             =   0.0000000000000E+00
(PID.TID 0000.0001) %MON dynstat_vvel_mean            =   0.0000000000000E+00
(PID.TID 0000.0001) %MON dynstat_vvel_sd              =   0.0000000000000E+00
(PID.TID 0000.0001) %MON dynstat_vvel_del2            =   0.0000000000000E+00
(PID.TID 0000.0001) %MON dynstat_wvel_max             =   3.2449490980773E-03
(PID.TID 0000.0001) %MON dynstat_wvel_min             =  -5.7145699763620E-03
(PID.TID 0000.0001) %MON dynstat_wvel_mean            =   1.8602520331128E-20
(PID.TID 0000.0001) %MON dynstat_wvel_sd              =   1.1585847443264E-03
(PID.TID 0000.0001) %MON dynstat_wvel_del2            =   7.6902593698844E-05
(PID.TID 0000.0001) %MON dynstat_theta_max            =   4.7676083494528E-02
(PID.TID 0000.0001) %MON dynstat_theta_min            =  -4.9225686480332E-02
(PID.TID 0000.0001) %MON dynstat_theta_mean           =   1.4002119319639E-02
(PID.TID 0000.0001) %MON dynstat_theta_sd             =   2.7810302706416E-02
(PID.TID 0000.0001) %MON dynstat_theta_del2           =   1.3428457255591E-04
(PID.TID 0000.0001) %MON dynstat_salt_max             =   3.5000000000000E+01
(PID.TID 0000.0001) %MON dynstat_salt_min             =   0.0000000000000E+00
(PID.TID 0000.0001) %MON dynstat_salt_mean            =   3.3847052152665E+01
(PID.TID 0000.0001) %MON dynstat_salt_sd              =   6.2469101096520E+00
(PID.TID 0000.0001) %MON dynstat_salt_del2            =   5.6726094003241E-01
(PID.TID 0000.0001) %MON advcfl_uvel_max              =   5.3413818490124E-02
(PID.TID 0000.0001) %MON advcfl_vvel_max              =   0.0000000000000E+00
(PID.TID 0000.0001) %MON advcfl_wvel_max              =   2.8572849881810E-01
(PID.TID 0000.0001) %MON advcfl_W_hf_max              =   2.8572849881810E-01
(PID.TID 0000.0001) %MON pe_b_mean                    =   1.0500990141308E-10
(PID.TID 0000.0001) %MON ke_max                       =   2.4136646875301E-04
(PID.TID 0000.0001) %MON ke_mean                      =   2.6248158581095E-05
(PID.TID 0000.0001) %MON ke_vol                       =   6.6188141628594E+09
(PID.TID 0000.0001) %MON vort_r_min                   =   0.0000000000000E+00
(PID.TID 0000.0001) %MON vort_r_max                   =   0.0000000000000E+00
(PID.TID 0000.0001) %MON vort_a_mean                  =   0.0000000000000E+00
(PID.TID 0000.0001) %MON vort_a_sd                    =   0.0000000000000E+00
(PID.TID 0000.0001) %MON vort_p_mean                  =   0.0000000000000E+00
(PID.TID 0000.0001) %MON vort_p_sd                    =   0.0000000000000E+00
(PID.TID 0000.0001) %MON surfExpan_theta_mean         =  -1.2400584453650E-12
(PID.TID 0000.0001) %MON surfExpan_salt_mean          =  -1.9845337726059E-19
(PID.TID 0000.0001) // =======================================================
(PID.TID 0000.0001) // End MONITOR dynamic field statistics
(PID.TID 0000.0001) // =======================================================
 cg2d: Sum(rhs),rhsMax =  -3.09596098757581E-14  5.06784550695361E-04
 cg2d: Sum(rhs),rhsMax =  -2.13368819140802E-14  5.01936332771614E-04
 cg2d: Sum(rhs),rhsMax =  -3.26362201152897E-14  5.20270793552482E-04
 cg2d: Sum(rhs),rhsMax =  -2.15660822533437E-14  4.99044449873132E-04
 cg2d: Sum(rhs),rhsMax =  -1.98894720138121E-14  5.04705343761067E-04
(PID.TID 0000.0001)                    cg2d_init_res =    2.11296201697010E-01
(PID.TID 0000.0001)                       cg2d_iters =    58
(PID.TID 0000.0001)                         cg2d_res =    1.40336160253444E-18
(PID.TID 0000.0001) // =======================================================
(PID.TID 0000.0001) // Begin MONITOR dynamic field statistics
(PID.TID 0000.0001) // =======================================================
(PID.TID 0000.0001) %MON time_tsnumber                =                    80
(PID.TID 0000.0001) %MON time_secondsf                =   4.0000000000000E+04
(PID.TID 0000.0001) %MON dynstat_eta_max              =   1.1693698504399E-04
(PID.TID 0000.0001) %MON dynstat_eta_min              =  -1.7877633126862E-04
(PID.TID 0000.0001) %MON dynstat_eta_mean             =   4.3095873866964E-17
(PID.TID 0000.0001) %MON dynstat_eta_sd               =   4.9129140238840E-05
(PID.TID 0000.0001) %MON dynstat_eta_del2             =   2.1104778865903E-06
(PID.TID 0000.0001) %MON dynstat_uvel_max             =   2.2518795612160E-02
(PID.TID 0000.0001) %MON dynstat_uvel_min             =  -2.2779025688593E-02
(PID.TID 0000.0001) %MON dynstat_uvel_mean            =   3.5223871682409E-08
(PID.TID 0000.0001) %MON dynstat_uvel_sd              =   7.4633976768210E-03
(PID.TID 0000.0001) %MON dynstat_uvel_del2            =   2.8015646153342E-04
(PID.TID 0000.0001) %MON dynstat_vvel_max             =   0.0000000000000E+00
(PID.TID 0000.0001) %MON dynstat_vvel_min             =   0.0000000000000E+00
(PID.TID 0000.0001) %MON dynstat_vvel_mean            =   0.0000000000000E+00
(PID.TID 0000.0001) %MON dynstat_vvel_sd              =   0.0000000000000E+00
(PID.TID 0000.0001) %MON dynstat_vvel_del2            =   0.0000000000000E+00
(PID.TID 0000.0001) %MON dynstat_wvel_max             =   3.1124952379229E-03
(PID.TID 0000.0001) %MON dynstat_wvel_min             =  -4.0863652669698E-03
(PID.TID 0000.0001) %MON dynstat_wvel_mean            =   2.1513601756991E-20
(PID.TID 0000.0001) %MON dynstat_wvel_sd              =   1.0611346006997E-03
(PID.TID 0000.0001) %MON dynstat_wvel_del2            =   5.4350811794565E-05
(PID.TID 0000.0001) %MON dynstat_theta_max            =   4.7843871041406E-02
(PID.TID 0000.0001) %MON dynstat_theta_min            =  -4.8996128958594E-02
(PID.TID 0000.0001) %MON dynstat_theta_mean           =   1.3932309122248E-02
(PID.TID 0000.0001) %MON dynstat_theta_sd             =   2.7829074682319E-02
(PID.TID 0000.0001) %MON dynstat_theta_del2           =   1.5314800246383E-04
(PID.TID 0000.0001) %MON dynstat_salt_max             =   3.5000000000000E+01
(PID.TID 0000.0001) %MON dynstat_salt_min             =   0.0000000000000E+00
(PID.TID 0000.0001) %MON dynstat_salt_mean            =   3.3847052152665E+01
(PID.TID 0000.0001) %MON dynstat_salt_sd              =   6.2469101096520E+00
(PID.TID 0000.0001) %MON dynstat_salt_del2            =   5.6726094003241E-01
(PID.TID 0000.0001) %MON advcfl_uvel_max              =   5.2237615300909E-02
(PID.TID 0000.0001) %MON advcfl_vvel_max              =   0.0000000000000E+00
(PID.TID 0000.0001) %MON advcfl_wvel_max              =   2.0431826334849E-01
(PID.TID 0000.0001) %MON advcfl_W_hf_max              =   2.0431826334849E-01
(PID.TID 0000.0001) %MON pe_b_mean                    =   1.1504850357054E-10
(PID.TID 0000.0001) %MON ke_max                       =   2.3869593430145E-04
(PID.TID 0000.0001) %MON ke_mean                      =   2.6933696351372E-05
(PID.TID 0000.0001) %MON ke_vol                       =   6.6188141628594E+09
(PID.TID 0000.0001) %MON vort_r_min                   =   0.0000000000000E+00
(PID.TID 0000.0001) %MON vort_r_max                   =   0.0000000000000E+00
(PID.TID 0000.0001) %MON vort_a_mean                  =   0.0000000000000E+00
(PID.TID 0000.0001) %MON vort_a_sd                    =   0.0000000000000E+00
(PID.TID 0000.0001) %MON vort_p_mean                  =   0.0000000000000E+00
(PID.TID 0000.0001) %MON vort_p_sd                    =   0.0000000000000E+00
(PID.TID 0000.0001) %MON surfExpan_theta_mean         =   1.2426006584679E-12
(PID.TID 0000.0001) %MON surfExpan_salt_mean          =  -8.0919652837010E-21
(PID.TID 0000.0001) // =======================================================
(PID.TID 0000.0001) // End MONITOR dynamic field statistics
(PID.TID 0000.0001) // =======================================================
 cg2d: Sum(rhs),rhsMax =  -1.56762623715334E-14  4.67477621264489E-04
 cg2d: Sum(rhs),rhsMax =  -1.95681144898874E-14  5.26549831446456E-04
 cg2d: Sum(rhs),rhsMax =  -7.07680442024738E-15  5.48952002132586E-04
 cg2d: Sum(rhs),rhsMax =  -7.96454915907852E-15  6.09130668962630E-04
 cg2d: Sum(rhs),rhsMax =  -6.93022028652734E-16  6.19938494780782E-04
(PID.TID 0000.0001)                    cg2d_init_res =    1.51824676379574E-01
(PID.TID 0000.0001)                       cg2d_iters =    58
(PID.TID 0000.0001)                         cg2d_res =    1.48396152872603E-18
(PID.TID 0000.0001) // =======================================================
(PID.TID 0000.0001) // Begin MONITOR dynamic field statistics
(PID.TID 0000.0001) // =======================================================
(PID.TID 0000.0001) %MON time_tsnumber                =                    85
(PID.TID 0000.0001) %MON time_secondsf                =   4.2500000000000E+04
(PID.TID 0000.0001) %MON dynstat_eta_max              =   1.1377643819901E-04
(PID.TID 0000.0001) %MON dynstat_eta_min              =  -1.8196568193581E-04
(PID.TID 0000.0001) %MON dynstat_eta_mean             =   6.8675542745757E-18
(PID.TID 0000.0001) %MON dynstat_eta_sd               =   5.0063311920499E-05
(PID.TID 0000.0001) %MON dynstat_eta_del2             =   1.7283517415246E-06
(PID.TID 0000.0001) %MON dynstat_uvel_max             =   2.2366982447329E-02
(PID.TID 0000.0001) %MON dynstat_uvel_min             =  -2.2105063347778E-02
(PID.TID 0000.0001) %MON dynstat_uvel_mean            =   3.6300491386005E-08
(PID.TID 0000.0001) %MON dynstat_uvel_sd              =   7.4384117192828E-03
(PID.TID 0000.0001) %MON dynstat_uvel_del2            =   3.1116835145283E-04
(PID.TID 0000.0001) %MON dynstat_vvel_max             =   0.0000000000000E+00
(PID.TID 0000.0001) %MON dynstat_vvel_min             =   0.0000000000000E+00
(PID.TID 0000.0001) %MON dynstat_vvel_mean            =   0.0000000000000E+00
(PID.TID 0000.0001) %MON dynstat_vvel_sd              =   0.0000000000000E+00
(PID.TID 0000.0001) %MON dynstat_vvel_del2            =   0.0000000000000E+00
(PID.TID 0000.0001) %MON dynstat_wvel_max             =   3.1788606885601E-03
(PID.TID 0000.0001) %MON dynstat_wvel_min             =  -2.7811975226174E-03
(PID.TID 0000.0001) %MON dynstat_wvel_mean            =  -2.0306567995048E-20
(PID.TID 0000.0001) %MON dynstat_wvel_sd              =   1.0023917233867E-03
(PID.TID 0000.0001) %MON dynstat_wvel_del2            =   5.7903922578210E-05
(PID.TID 0000.0001) %MON dynstat_theta_max            =   4.8144260986551E-02
(PID.TID 0000.0001) %MON dynstat_theta_min            =  -4.8695739013449E-02
(PID.TID 0000.0001) %MON dynstat_theta_mean           =   1.3932292023853E-02
(PID.TID 0000.0001) %MON dynstat_theta_sd             =   2.7805576514456E-02
(PID.TID 0000.0001) %MON dynstat_theta_del2           =   1.6715170339991E-04
(PID.TID 0000.0001) %MON dynstat_salt_max             =   3.5000000000000E+01
(PID.TID 0000.0001) %MON dynstat_salt_min             =   0.0000000000000E+00
(PID.TID 0000.0001) %MON dynstat_salt_mean            =   3.3847052152665E+01
(PID.TID 0000.0001) %MON dynstat_salt_sd              =   6.2469101096520E+00
(PID.TID 0000.0001) %MON dynstat_salt_del2            =   5.6726094003241E-01
(PID.TID 0000.0001) %MON advcfl_uvel_max              =   5.1292704108537E-02
(PID.TID 0000.0001) %MON advcfl_vvel_max              =   0.0000000000000E+00
(PID.TID 0000.0001) %MON advcfl_wvel_max              =   1.5894303442800E-01
(PID.TID 0000.0001) %MON advcfl_W_hf_max              =   1.5894303442800E-01
(PID.TID 0000.0001) %MON pe_b_mean                    =   1.1946530597771E-10
(PID.TID 0000.0001) %MON ke_max                       =   2.4190377800524E-04
(PID.TID 0000.0001) %MON ke_mean                      =   2.6753661005669E-05
(PID.TID 0000.0001) %MON ke_vol                       =   6.6188141628594E+09
(PID.TID 0000.0001) %MON vort_r_min                   =   0.0000000000000E+00
(PID.TID 0000.0001) %MON vort_r_max                   =   0.0000000000000E+00
(PID.TID 0000.0001) %MON vort_a_mean                  =   0.0000000000000E+00
(PID.TID 0000.0001) %MON vort_a_sd                    =   0.0000000000000E+00
(PID.TID 0000.0001) %MON vort_p_mean                  =   0.0000000000000E+00
(PID.TID 0000.0001) %MON vort_p_sd                    =   0.0000000000000E+00
(PID.TID 0000.0001) %MON surfExpan_theta_mean         =  -2.9182476504395E-12
(PID.TID 0000.0001) %MON surfExpan_salt_mean          =  -7.2877399285427E-19
(PID.TID 0000.0001) // =======================================================
(PID.TID 0000.0001) // End MONITOR dynamic field statistics
(PID.TID 0000.0001) // =======================================================
 cg2d: Sum(rhs),rhsMax =   1.96197225132977E-15  6.69753552699589E-04
 cg2d: Sum(rhs),rhsMax =  -6.57156620786914E-15  6.69154385782218E-04
 cg2d: Sum(rhs),rhsMax =  -1.03497939385466E-14  7.08885103014592E-04
 cg2d: Sum(rhs),rhsMax =  -1.50634713036446E-14  6.97539124235551E-04
 cg2d: Sum(rhs),rhsMax =  -1.29831041750794E-14  7.27852790402632E-04
(PID.TID 0000.0001)                    cg2d_init_res =    9.74740559668444E-02
(PID.TID 0000.0001)                       cg2d_iters =    58
(PID.TID 0000.0001)                         cg2d_res =    2.63488005050955E-19
(PID.TID 0000.0001) // =======================================================
(PID.TID 0000.0001) // Begin MONITOR dynamic field statistics
(PID.TID 0000.0001) // =======================================================
(PID.TID 0000.0001) %MON time_tsnumber                =                    90
(PID.TID 0000.0001) %MON time_secondsf                =   4.5000000000000E+04
(PID.TID 0000.0001) %MON dynstat_eta_max              =   1.1385299429837E-04
(PID.TID 0000.0001) %MON dynstat_eta_min              =  -1.8326362708342E-04
(PID.TID 0000.0001) %MON dynstat_eta_mean             =   4.5039447934068E-17
(PID.TID 0000.0001) %MON dynstat_eta_sd               =   5.0529469969096E-05
(PID.TID 0000.0001) %MON dynstat_eta_del2             =   1.5747893939379E-06
(PID.TID 0000.0001) %MON dynstat_uvel_max             =   2.2282617892255E-02
(PID.TID 0000.0001) %MON dynstat_uvel_min             =  -2.2953179827868E-02
(PID.TID 0000.0001) %MON dynstat_uvel_mean            =   8.6397939462814E-09
(PID.TID 0000.0001) %MON dynstat_uvel_sd              =   7.3940064732785E-03
(PID.TID 0000.0001) %MON dynstat_uvel_del2            =   3.2815798473164E-04
(PID.TID 0000.0001) %MON dynstat_vvel_max             =   0.0000000000000E+00
(PID.TID 0000.0001) %MON dynstat_vvel_min             =   0.0000000000000E+00
(PID.TID 0000.0001) %MON dynstat_vvel_mean            =   0.0000000000000E+00
(PID.TID 0000.0001) %MON dynstat_vvel_sd              =   0.0000000000000E+00
(PID.TID 0000.0001) %MON dynstat_vvel_del2            =   0.0000000000000E+00
(PID.TID 0000.0001) %MON dynstat_wvel_max             =   3.1236067007239E-03
(PID.TID 0000.0001) %MON dynstat_wvel_min             =  -3.1849325914473E-03
(PID.TID 0000.0001) %MON dynstat_wvel_mean            =  -1.2070337619434E-21
(PID.TID 0000.0001) %MON dynstat_wvel_sd              =   1.0312210408857E-03
(PID.TID 0000.0001) %MON dynstat_wvel_del2            =   8.5346864233736E-05
(PID.TID 0000.0001) %MON dynstat_theta_max            =   4.8478551783684E-02
(PID.TID 0000.0001) %MON dynstat_theta_min            =  -4.8361448216316E-02
(PID.TID 0000.0001) %MON dynstat_theta_mean           =   1.4002226280080E-02
(PID.TID 0000.0001) %MON dynstat_theta_sd             =   2.7748920874554E-02
(PID.TID 0000.0001) %MON dynstat_theta_del2           =   1.7807442772534E-04
(PID.TID 0000.0001) %MON dynstat_salt_max             =   3.5000000000000E+01
(PID.TID 0000.0001) %MON dynstat_salt_min             =   0.0000000000000E+00
(PID.TID 0000.0001) %MON dynstat_salt_mean            =   3.3847052152665E+01
(PID.TID 0000.0001) %MON dynstat_salt_sd              =   6.2469101096520E+00
(PID.TID 0000.0001) %MON dynstat_salt_del2            =   5.6726094003241E-01
(PID.TID 0000.0001) %MON advcfl_uvel_max              =   5.2636991334583E-02
(PID.TID 0000.0001) %MON advcfl_vvel_max              =   0.0000000000000E+00
(PID.TID 0000.0001) %MON advcfl_wvel_max              =   1.5924662957236E-01
(PID.TID 0000.0001) %MON advcfl_W_hf_max              =   1.5924662957236E-01
(PID.TID 0000.0001) %MON pe_b_mean                    =   1.2170043527877E-10
(PID.TID 0000.0001) %MON ke_max                       =   2.4118870525510E-04
(PID.TID 0000.0001) %MON ke_mean                      =   2.6435190496649E-05
(PID.TID 0000.0001) %MON ke_vol                       =   6.6188141628594E+09
(PID.TID 0000.0001) %MON vort_r_min                   =   0.0000000000000E+00
(PID.TID 0000.0001) %MON vort_r_max                   =   0.0000000000000E+00
(PID.TID 0000.0001) %MON vort_a_mean                  =   0.0000000000000E+00
(PID.TID 0000.0001) %MON vort_a_sd                    =   0.0000000000000E+00
(PID.TID 0000.0001) %MON vort_p_mean                  =   0.0000000000000E+00
(PID.TID 0000.0001) %MON vort_p_sd                    =   0.0000000000000E+00
(PID.TID 0000.0001) %MON surfExpan_theta_mean         =   1.7399469119512E-12
(PID.TID 0000.0001) %MON surfExpan_salt_mean          =   3.6212752915829E-19
(PID.TID 0000.0001) // =======================================================
(PID.TID 0000.0001) // End MONITOR dynamic field statistics
(PID.TID 0000.0001) // =======================================================
 cg2d: Sum(rhs),rhsMax =  -1.57413145018825E-14  7.06721955342177E-04
 cg2d: Sum(rhs),rhsMax =  -1.90923665766007E-14  7.28499858367020E-04
 cg2d: Sum(rhs),rhsMax =  -1.27415439310496E-14  6.98714133639748E-04
 cg2d: Sum(rhs),rhsMax =  -1.97272753688083E-14  7.12965035337353E-04
 cg2d: Sum(rhs),rhsMax =  -1.59742011285324E-14  6.75746735890859E-04
(PID.TID 0000.0001)                    cg2d_init_res =    1.60417905394549E-01
(PID.TID 0000.0001)                       cg2d_iters =    58
(PID.TID 0000.0001)                         cg2d_res =    2.41830666528849E-19
(PID.TID 0000.0001) // =======================================================
(PID.TID 0000.0001) // Begin MONITOR dynamic field statistics
(PID.TID 0000.0001) // =======================================================
(PID.TID 0000.0001) %MON time_tsnumber                =                    95
(PID.TID 0000.0001) %MON time_secondsf                =   4.7500000000000E+04
(PID.TID 0000.0001) %MON dynstat_eta_max              =   1.1103064097819E-04
(PID.TID 0000.0001) %MON dynstat_eta_min              =  -1.8268911539364E-04
(PID.TID 0000.0001) %MON dynstat_eta_mean             =   6.0438154075032E-17
(PID.TID 0000.0001) %MON dynstat_eta_sd               =   5.1094388900321E-05
(PID.TID 0000.0001) %MON dynstat_eta_del2             =   1.6462705936854E-06
(PID.TID 0000.0001) %MON dynstat_uvel_max             =   2.2263519121248E-02
(PID.TID 0000.0001) %MON dynstat_uvel_min             =  -2.4165063849046E-02
(PID.TID 0000.0001) %MON dynstat_uvel_mean            =   9.1724179386735E-09
(PID.TID 0000.0001) %MON dynstat_uvel_sd              =   7.4447162969103E-03
(PID.TID 0000.0001) %MON dynstat_uvel_del2            =   3.3150358107163E-04
(PID.TID 0000.0001) %MON dynstat_vvel_max             =   0.0000000000000E+00
(PID.TID 0000.0001) %MON dynstat_vvel_min             =   0.0000000000000E+00
(PID.TID 0000.0001) %MON dynstat_vvel_mean            =   0.0000000000000E+00
(PID.TID 0000.0001) %MON dynstat_vvel_sd              =   0.0000000000000E+00
(PID.TID 0000.0001) %MON dynstat_vvel_del2            =   0.0000000000000E+00
(PID.TID 0000.0001) %MON dynstat_wvel_max             =   3.0345269839573E-03
(PID.TID 0000.0001) %MON dynstat_wvel_min             =  -3.2054272155914E-03
(PID.TID 0000.0001) %MON dynstat_wvel_mean            =  -6.7451886696838E-21
(PID.TID 0000.0001) %MON dynstat_wvel_sd              =   1.1410839629086E-03
(PID.TID 0000.0001) %MON dynstat_wvel_del2            =   1.1067822780892E-04
(PID.TID 0000.0001) %MON dynstat_theta_max            =   4.8805643906507E-02
(PID.TID 0000.0001) %MON dynstat_theta_min            =  -4.8034356093493E-02
(PID.TID 0000.0001) %MON dynstat_theta_mean           =   1.4133418250141E-02
(PID.TID 0000.0001) %MON dynstat_theta_sd             =   2.7671204095153E-02
(PID.TID 0000.0001) %MON dynstat_theta_del2           =   1.8860853916718E-04
(PID.TID 0000.0001) %MON dynstat_salt_max             =   3.5000000000000E+01
(PID.TID 0000.0001) %MON dynstat_salt_min             =   0.0000000000000E+00
(PID.TID 0000.0001) %MON dynstat_salt_mean            =   3.3847052152665E+01
(PID.TID 0000.0001) %MON dynstat_salt_sd              =   6.2469101096520E+00
(PID.TID 0000.0001) %MON dynstat_salt_del2            =   5.6726094003241E-01
(PID.TID 0000.0001) %MON advcfl_uvel_max              =   5.5416123864355E-02
(PID.TID 0000.0001) %MON advcfl_vvel_max              =   0.0000000000000E+00
(PID.TID 0000.0001) %MON advcfl_wvel_max              =   1.6027136077957E-01
(PID.TID 0000.0001) %MON advcfl_W_hf_max              =   1.6027136077957E-01
(PID.TID 0000.0001) %MON pe_b_mean                    =   1.2443686599607E-10
(PID.TID 0000.0001) %MON ke_max                       =   2.8272352237136E-04
(PID.TID 0000.0001) %MON ke_mean                      =   2.6799031004279E-05
(PID.TID 0000.0001) %MON ke_vol                       =   6.6188141628594E+09
(PID.TID 0000.0001) %MON vort_r_min                   =   0.0000000000000E+00
(PID.TID 0000.0001) %MON vort_r_max                   =   0.0000000000000E+00
(PID.TID 0000.0001) %MON vort_a_mean                  =   0.0000000000000E+00
(PID.TID 0000.0001) %MON vort_a_sd                    =   0.0000000000000E+00
(PID.TID 0000.0001) %MON vort_p_mean                  =   0.0000000000000E+00
(PID.TID 0000.0001) %MON vort_p_sd                    =   0.0000000000000E+00
(PID.TID 0000.0001) %MON surfExpan_theta_mean         =  -1.6996637398327E-12
(PID.TID 0000.0001) %MON surfExpan_salt_mean          =   1.6404440073586E-21
(PID.TID 0000.0001) // =======================================================
(PID.TID 0000.0001) // End MONITOR dynamic field statistics
(PID.TID 0000.0001) // =======================================================
 cg2d: Sum(rhs),rhsMax =  -2.14953922716976E-14  6.83555675176688E-04
 cg2d: Sum(rhs),rhsMax =  -2.16918497053520E-14  6.40200554702653E-04
 cg2d: Sum(rhs),rhsMax =  -1.67678371187918E-14  6.42718766486657E-04
 cg2d: Sum(rhs),rhsMax =  -2.05942034259277E-14  5.94567039367709E-04
 cg2d: Sum(rhs),rhsMax =  -1.94852814439095E-14  5.93006504891329E-04
(PID.TID 0000.0001)                    cg2d_init_res =    1.46927123136981E-01
(PID.TID 0000.0001)                       cg2d_iters =    58
(PID.TID 0000.0001)                         cg2d_res =    1.45459466434627E-19
(PID.TID 0000.0001) // =======================================================
(PID.TID 0000.0001) // Begin MONITOR dynamic field statistics
(PID.TID 0000.0001) // =======================================================
(PID.TID 0000.0001) %MON time_tsnumber                =                   100
(PID.TID 0000.0001) %MON time_secondsf                =   5.0000000000000E+04
(PID.TID 0000.0001) %MON dynstat_eta_max              =   1.0459056776293E-04
(PID.TID 0000.0001) %MON dynstat_eta_min              =  -1.8947746159270E-04
(PID.TID 0000.0001) %MON dynstat_eta_mean             =   5.4463201568270E-17
(PID.TID 0000.0001) %MON dynstat_eta_sd               =   5.1636659228828E-05
(PID.TID 0000.0001) %MON dynstat_eta_del2             =   1.9786477578692E-06
(PID.TID 0000.0001) %MON dynstat_uvel_max             =   2.1913427972176E-02
(PID.TID 0000.0001) %MON dynstat_uvel_min             =  -2.7314510736345E-02
(PID.TID 0000.0001) %MON dynstat_uvel_mean            =  -9.0226732590339E-09
(PID.TID 0000.0001) %MON dynstat_uvel_sd              =   7.6601056343396E-03
(PID.TID 0000.0001) %MON dynstat_uvel_del2            =   3.3602321183535E-04
(PID.TID 0000.0001) %MON dynstat_vvel_max             =   0.0000000000000E+00
(PID.TID 0000.0001) %MON dynstat_vvel_min             =   0.0000000000000E+00
(PID.TID 0000.0001) %MON dynstat_vvel_mean            =   0.0000000000000E+00
(PID.TID 0000.0001) %MON dynstat_vvel_sd              =   0.0000000000000E+00
(PID.TID 0000.0001) %MON dynstat_vvel_del2            =   0.0000000000000E+00
(PID.TID 0000.0001) %MON dynstat_wvel_max             =   4.7189995197283E-03
(PID.TID 0000.0001) %MON dynstat_wvel_min             =  -3.2371964629246E-03
(PID.TID 0000.0001) %MON dynstat_wvel_mean            =  -2.3146647434915E-20
(PID.TID 0000.0001) %MON dynstat_wvel_sd              =   1.2791650025327E-03
(PID.TID 0000.0001) %MON dynstat_wvel_del2            =   1.2939743062468E-04
(PID.TID 0000.0001) %MON dynstat_theta_max            =   4.9085322872843E-02
(PID.TID 0000.0001) %MON dynstat_theta_min            =  -4.7754677127157E-02
(PID.TID 0000.0001) %MON dynstat_theta_mean           =   1.4309462769278E-02
(PID.TID 0000.0001) %MON dynstat_theta_sd             =   2.7583333826495E-02
(PID.TID 0000.0001) %MON dynstat_theta_del2           =   1.9066248188514E-04
(PID.TID 0000.0001) %MON dynstat_salt_max             =   3.5000000000000E+01
(PID.TID 0000.0001) %MON dynstat_salt_min             =   0.0000000000000E+00
(PID.TID 0000.0001) %MON dynstat_salt_mean            =   3.3847052152665E+01
(PID.TID 0000.0001) %MON dynstat_salt_sd              =   6.2469101096520E+00
(PID.TID 0000.0001) %MON dynstat_salt_del2            =   5.6726094003241E-01
(PID.TID 0000.0001) %MON advcfl_uvel_max              =   6.2638539658535E-02
(PID.TID 0000.0001) %MON advcfl_vvel_max              =   0.0000000000000E+00
(PID.TID 0000.0001) %MON advcfl_wvel_max              =   2.3594997598641E-01
(PID.TID 0000.0001) %MON advcfl_W_hf_max              =   2.3594997598641E-01
(PID.TID 0000.0001) %MON pe_b_mean                    =   1.2709220641927E-10
(PID.TID 0000.0001) %MON ke_max                       =   2.8794362280809E-04
(PID.TID 0000.0001) %MON ke_mean                      =   2.8372153503842E-05
(PID.TID 0000.0001) %MON ke_vol                       =   6.6188141628594E+09
(PID.TID 0000.0001) %MON vort_r_min                   =   0.0000000000000E+00
(PID.TID 0000.0001) %MON vort_r_max                   =   0.0000000000000E+00
(PID.TID 0000.0001) %MON vort_a_mean                  =   0.0000000000000E+00
(PID.TID 0000.0001) %MON vort_a_sd                    =   0.0000000000000E+00
(PID.TID 0000.0001) %MON vort_p_mean                  =   0.0000000000000E+00
(PID.TID 0000.0001) %MON vort_p_sd                    =   0.0000000000000E+00
(PID.TID 0000.0001) %MON surfExpan_theta_mean         =  -1.7117880010786E-13
(PID.TID 0000.0001) %MON surfExpan_salt_mean          =   4.8757111512465E-19
(PID.TID 0000.0001) // =======================================================
(PID.TID 0000.0001) // End MONITOR dynamic field statistics
(PID.TID 0000.0001) // =======================================================
(PID.TID 0000.0001) // =======================================================
(PID.TID 0000.0001) // Field OBNu at iteration        100
(PID.TID 0000.0001) // CMIN =          1.000000000000000E+32
(PID.TID 0000.0001) // CMAX =         -1.000000000000000E+32
(PID.TID 0000.0001) // CINT =          0.000000000000000E+00
(PID.TID 0000.0001) // SYMBOLS (CMIN->CMAX): -abcdefghijklmnopqrstuvwxyz+
(PID.TID 0000.0001) //                  0.0: .
(PID.TID 0000.0001) // RANGE I (Lo:Hi:Step):(   1:  60:   1)
(PID.TID 0000.0001) // RANGE J (Lo:Hi:Step):(   1:   1:  -1)
(PID.TID 0000.0001) // RANGE K (Lo:Hi:Step):(   1:  20:   1)
(PID.TID 0000.0001) // =======================================================
(PID.TID 0000.0001) // =======================================================
(PID.TID 0000.0001) // END OF FIELD                                          =
(PID.TID 0000.0001) // =======================================================
(PID.TID 0000.0001) 
(PID.TID 0000.0001) // =======================================================
(PID.TID 0000.0001) // Field OBNv at iteration        100
(PID.TID 0000.0001) // CMIN =          1.000000000000000E+32
(PID.TID 0000.0001) // CMAX =         -1.000000000000000E+32
(PID.TID 0000.0001) // CINT =          0.000000000000000E+00
(PID.TID 0000.0001) // SYMBOLS (CMIN->CMAX): -abcdefghijklmnopqrstuvwxyz+
(PID.TID 0000.0001) //                  0.0: .
(PID.TID 0000.0001) // RANGE I (Lo:Hi:Step):(   1:  60:   1)
(PID.TID 0000.0001) // RANGE J (Lo:Hi:Step):(   1:   1:  -1)
(PID.TID 0000.0001) // RANGE K (Lo:Hi:Step):(   1:  20:   1)
(PID.TID 0000.0001) // =======================================================
(PID.TID 0000.0001) // =======================================================
(PID.TID 0000.0001) // END OF FIELD                                          =
(PID.TID 0000.0001) // =======================================================
(PID.TID 0000.0001) 
(PID.TID 0000.0001) // =======================================================
(PID.TID 0000.0001) // Field OBNt at iteration        100
(PID.TID 0000.0001) // CMIN =         -4.842000000000000E-02
(PID.TID 0000.0001) // CMAX =          4.842000000000000E-02
(PID.TID 0000.0001) // CINT =          3.586666666666666E-03
(PID.TID 0000.0001) // SYMBOLS (CMIN->CMAX): -abcdefghijklmnopqrstuvwxyz+
(PID.TID 0000.0001) //                  0.0: .
(PID.TID 0000.0001) // RANGE I (Lo:Hi:Step):(   1:  60:   1)
(PID.TID 0000.0001) // RANGE J (Lo:Hi:Step):(   1:   1:  -1)
(PID.TID 0000.0001) // RANGE K (Lo:Hi:Step):(   1:  20:   1)
(PID.TID 0000.0001) // =======================================================
(PID.TID 0000.0001) J =   1
(PID.TID 0000.0001)                I=10      I=20      I=30      I=40      I=50      I=60
(PID.TID 0000.0001) |--K--|123456789|123456789|123456789|123456789|123456789|123456789|
(PID.TID 0000.0001)      1 ++++++++++++++++++++++++++++++++++++++++++++++++++++++++++++
(PID.TID 0000.0001)      2 zzzzzzzzzzzzzzzzzzzzzzzzzzzzzzzzzzzzzzzzzzzzzzzzzzzzzzzzzzzz
(PID.TID 0000.0001)      3 xxxxxxxxxxxxxxxxxxxxxxxxxxxxxxxxxxxxxxxxxxxxxxxxxxxxxxxxxxxx
(PID.TID 0000.0001)      4 wwwwwwwwwwwwwwwwwwwwwwwwwwwwwwwwwwwwwwwwwwwwwwwwwwwwwwwwwwww
(PID.TID 0000.0001)      5 uuuuuuuuuuuuuuuuuuuuuuuuuuuuuuuuuuuuuuuuuuuuuuuuuuuuuuuuuuuu
(PID.TID 0000.0001)      6 tttttttttttttttttttttttttttttttttttttttttttttttttttttttttttt
(PID.TID 0000.0001)      7 rrrrrrrrrrrrrrrrrrrrrrrrrrrrrrrrrrrrrrrrrrrrrrrrrrrrrrrrrrrr
(PID.TID 0000.0001)      8 qqqqqqqqqqqqqqqqqqqqqqqqqqqqqqqqqqqqqqqqqqqqqqqqqqqqqqqqqqqq
(PID.TID 0000.0001)      9 pppppppppppppppppppppppppppppppppppppppppppppppppppppppppppp
(PID.TID 0000.0001)     10 nnnnnnnnnnnnnnnnnnnnnnnnnnnnnnnnnnnnnnnnnnnnnnnnnnnnnnnnnnnn
(PID.TID 0000.0001)     11 mmmmmmmmmmmmmmmmmmmmmmmmmmmmmmmmmmmmmmmmmmmmmmmmmmmmmmmmmmmm
(PID.TID 0000.0001)     12 kkkkkkkkkkkkkkkkkkkkkkkkkkkkkkkkkkkkkkkkkkkkkkkkkkkkkkkkkkkk
(PID.TID 0000.0001)     13 jjjjjjjjjjjjjjjjjjjjjjjjjjjjjjjjjjjjjjjjjjjjjjjjjjjjjjjjjjjj
(PID.TID 0000.0001)     14 iiiiiiiiiiiiiiiiiiiiiiiiiiiiiiiiiiiiiiiiiiiiiiiiiiiiiiiiiiii
(PID.TID 0000.0001)     15 gggggggggggggggggggggggggggggggggggggggggggggggggggggggggggg
(PID.TID 0000.0001)     16 ffffffffffffffffffffffffffffffffffffffffffffffffffffffffffff
(PID.TID 0000.0001)     17 dddddddddddddddddddddddddddddddddddddddddddddddddddddddddddd
(PID.TID 0000.0001)     18 cccccccccccccccccccccccccccccccccccccccccccccccccccccccccccc
(PID.TID 0000.0001)     19 aaaaaaaaaaaaaaaaaaaaaaaaaaaaaaaaaaaaaaaaaaaaaaaaaaaaaaaaaaaa
(PID.TID 0000.0001)     20 ------------------------------------------------------------
(PID.TID 0000.0001) // =======================================================
(PID.TID 0000.0001) // END OF FIELD                                          =
(PID.TID 0000.0001) // =======================================================
(PID.TID 0000.0001) 
(PID.TID 0000.0001) // =======================================================
(PID.TID 0000.0001) // Field OBNs at iteration        100
(PID.TID 0000.0001) // CMIN =          3.500000000000000E+01
(PID.TID 0000.0001) // CMAX =          3.500000000000000E+01
(PID.TID 0000.0001) // CINT =          0.000000000000000E+00
(PID.TID 0000.0001) // SYMBOLS (CMIN->CMAX): -abcdefghijklmnopqrstuvwxyz+
(PID.TID 0000.0001) //                  0.0: .
(PID.TID 0000.0001) // RANGE I (Lo:Hi:Step):(   1:  60:   1)
(PID.TID 0000.0001) // RANGE J (Lo:Hi:Step):(   1:   1:  -1)
(PID.TID 0000.0001) // RANGE K (Lo:Hi:Step):(   1:  20:   1)
(PID.TID 0000.0001) // =======================================================
(PID.TID 0000.0001) // =======================================================
(PID.TID 0000.0001) // END OF FIELD                                          =
(PID.TID 0000.0001) // =======================================================
(PID.TID 0000.0001) 
(PID.TID 0000.0001) // =======================================================
(PID.TID 0000.0001) // Field OBSu at iteration        100
(PID.TID 0000.0001) // CMIN =          1.000000000000000E+32
(PID.TID 0000.0001) // CMAX =         -1.000000000000000E+32
(PID.TID 0000.0001) // CINT =          0.000000000000000E+00
(PID.TID 0000.0001) // SYMBOLS (CMIN->CMAX): -abcdefghijklmnopqrstuvwxyz+
(PID.TID 0000.0001) //                  0.0: .
(PID.TID 0000.0001) // RANGE I (Lo:Hi:Step):(   1:  60:   1)
(PID.TID 0000.0001) // RANGE J (Lo:Hi:Step):(   1:   1:  -1)
(PID.TID 0000.0001) // RANGE K (Lo:Hi:Step):(   1:  20:   1)
(PID.TID 0000.0001) // =======================================================
(PID.TID 0000.0001) // =======================================================
(PID.TID 0000.0001) // END OF FIELD                                          =
(PID.TID 0000.0001) // =======================================================
(PID.TID 0000.0001) 
(PID.TID 0000.0001) // =======================================================
(PID.TID 0000.0001) // Field OBSv at iteration        100
(PID.TID 0000.0001) // CMIN =          1.000000000000000E+32
(PID.TID 0000.0001) // CMAX =         -1.000000000000000E+32
(PID.TID 0000.0001) // CINT =          0.000000000000000E+00
(PID.TID 0000.0001) // SYMBOLS (CMIN->CMAX): -abcdefghijklmnopqrstuvwxyz+
(PID.TID 0000.0001) //                  0.0: .
(PID.TID 0000.0001) // RANGE I (Lo:Hi:Step):(   1:  60:   1)
(PID.TID 0000.0001) // RANGE J (Lo:Hi:Step):(   1:   1:  -1)
(PID.TID 0000.0001) // RANGE K (Lo:Hi:Step):(   1:  20:   1)
(PID.TID 0000.0001) // =======================================================
(PID.TID 0000.0001) // =======================================================
(PID.TID 0000.0001) // END OF FIELD                                          =
(PID.TID 0000.0001) // =======================================================
(PID.TID 0000.0001) 
(PID.TID 0000.0001) // =======================================================
(PID.TID 0000.0001) // Field OBSt at iteration        100
(PID.TID 0000.0001) // CMIN =         -4.842000000000000E-02
(PID.TID 0000.0001) // CMAX =          4.842000000000000E-02
(PID.TID 0000.0001) // CINT =          3.586666666666666E-03
(PID.TID 0000.0001) // SYMBOLS (CMIN->CMAX): -abcdefghijklmnopqrstuvwxyz+
(PID.TID 0000.0001) //                  0.0: .
(PID.TID 0000.0001) // RANGE I (Lo:Hi:Step):(   1:  60:   1)
(PID.TID 0000.0001) // RANGE J (Lo:Hi:Step):(   1:   1:  -1)
(PID.TID 0000.0001) // RANGE K (Lo:Hi:Step):(   1:  20:   1)
(PID.TID 0000.0001) // =======================================================
(PID.TID 0000.0001) J =   1
(PID.TID 0000.0001)                I=10      I=20      I=30      I=40      I=50      I=60
(PID.TID 0000.0001) |--K--|123456789|123456789|123456789|123456789|123456789|123456789|
(PID.TID 0000.0001)      1 ++++++++++++++++++++++++++++++++++++++++++++++++++++++++++++
(PID.TID 0000.0001)      2 zzzzzzzzzzzzzzzzzzzzzzzzzzzzzzzzzzzzzzzzzzzzzzzzzzzzzzzzzzzz
(PID.TID 0000.0001)      3 xxxxxxxxxxxxxxxxxxxxxxxxxxxxxxxxxxxxxxxxxxxxxxxxxxxxxxxxxxxx
(PID.TID 0000.0001)      4 wwwwwwwwwwwwwwwwwwwwwwwwwwwwwwwwwwwwwwwwwwwwwwwwwwwwwwwwwwww
(PID.TID 0000.0001)      5 uuuuuuuuuuuuuuuuuuuuuuuuuuuuuuuuuuuuuuuuuuuuuuuuuuuuuuuuuuuu
(PID.TID 0000.0001)      6 tttttttttttttttttttttttttttttttttttttttttttttttttttttttttttt
(PID.TID 0000.0001)      7 rrrrrrrrrrrrrrrrrrrrrrrrrrrrrrrrrrrrrrrrrrrrrrrrrrrrrrrrrrrr
(PID.TID 0000.0001)      8 qqqqqqqqqqqqqqqqqqqqqqqqqqqqqqqqqqqqqqqqqqqqqqqqqqqqqqqqqqqq
(PID.TID 0000.0001)      9 pppppppppppppppppppppppppppppppppppppppppppppppppppppppppppp
(PID.TID 0000.0001)     10 nnnnnnnnnnnnnnnnnnnnnnnnnnnnnnnnnnnnnnnnnnnnnnnnnnnnnnnnnnnn
(PID.TID 0000.0001)     11 mmmmmmmmmmmmmmmmmmmmmmmmmmmmmmmmmmmmmmmmmmmmmmmmmmmmmmmmmmmm
(PID.TID 0000.0001)     12 kkkkkkkkkkkkkkkkkkkkkkkkkkkkkkkkkkkkkkkkkkkkkkkkkkkkkkkkkkkk
(PID.TID 0000.0001)     13 jjjjjjjjjjjjjjjjjjjjjjjjjjjjjjjjjjjjjjjjjjjjjjjjjjjjjjjjjjjj
(PID.TID 0000.0001)     14 iiiiiiiiiiiiiiiiiiiiiiiiiiiiiiiiiiiiiiiiiiiiiiiiiiiiiiiiiiii
(PID.TID 0000.0001)     15 gggggggggggggggggggggggggggggggggggggggggggggggggggggggggggg
(PID.TID 0000.0001)     16 ffffffffffffffffffffffffffffffffffffffffffffffffffffffffffff
(PID.TID 0000.0001)     17 dddddddddddddddddddddddddddddddddddddddddddddddddddddddddddd
(PID.TID 0000.0001)     18 cccccccccccccccccccccccccccccccccccccccccccccccccccccccccccc
(PID.TID 0000.0001)     19 aaaaaaaaaaaaaaaaaaaaaaaaaaaaaaaaaaaaaaaaaaaaaaaaaaaaaaaaaaaa
(PID.TID 0000.0001)     20 ------------------------------------------------------------
(PID.TID 0000.0001) // =======================================================
(PID.TID 0000.0001) // END OF FIELD                                          =
(PID.TID 0000.0001) // =======================================================
(PID.TID 0000.0001) 
(PID.TID 0000.0001) // =======================================================
(PID.TID 0000.0001) // Field OBSs at iteration        100
(PID.TID 0000.0001) // CMIN =          3.500000000000000E+01
(PID.TID 0000.0001) // CMAX =          3.500000000000000E+01
(PID.TID 0000.0001) // CINT =          0.000000000000000E+00
(PID.TID 0000.0001) // SYMBOLS (CMIN->CMAX): -abcdefghijklmnopqrstuvwxyz+
(PID.TID 0000.0001) //                  0.0: .
(PID.TID 0000.0001) // RANGE I (Lo:Hi:Step):(   1:  60:   1)
(PID.TID 0000.0001) // RANGE J (Lo:Hi:Step):(   1:   1:  -1)
(PID.TID 0000.0001) // RANGE K (Lo:Hi:Step):(   1:  20:   1)
(PID.TID 0000.0001) // =======================================================
(PID.TID 0000.0001) // =======================================================
(PID.TID 0000.0001) // END OF FIELD                                          =
(PID.TID 0000.0001) // =======================================================
(PID.TID 0000.0001) 
(PID.TID 0000.0001) // =======================================================
(PID.TID 0000.0001) // Field OBEu at iteration        100
(PID.TID 0000.0001) // CMIN =          1.000000000000000E+32
(PID.TID 0000.0001) // CMAX =         -1.000000000000000E+32
(PID.TID 0000.0001) // CINT =          0.000000000000000E+00
(PID.TID 0000.0001) // SYMBOLS (CMIN->CMAX): -abcdefghijklmnopqrstuvwxyz+
(PID.TID 0000.0001) //                  0.0: .
(PID.TID 0000.0001) // RANGE I (Lo:Hi:Step):(   1:  31:   1)
(PID.TID 0000.0001) // RANGE J (Lo:Hi:Step):(   1:   1:  -1)
(PID.TID 0000.0001) // RANGE K (Lo:Hi:Step):(   1:  20:   1)
(PID.TID 0000.0001) // =======================================================
(PID.TID 0000.0001) // =======================================================
(PID.TID 0000.0001) // END OF FIELD                                          =
(PID.TID 0000.0001) // =======================================================
(PID.TID 0000.0001) 
(PID.TID 0000.0001) // =======================================================
(PID.TID 0000.0001) // Field OBEv at iteration        100
(PID.TID 0000.0001) // CMIN =          1.000000000000000E+32
(PID.TID 0000.0001) // CMAX =         -1.000000000000000E+32
(PID.TID 0000.0001) // CINT =          0.000000000000000E+00
(PID.TID 0000.0001) // SYMBOLS (CMIN->CMAX): -abcdefghijklmnopqrstuvwxyz+
(PID.TID 0000.0001) //                  0.0: .
(PID.TID 0000.0001) // RANGE I (Lo:Hi:Step):(   1:  31:   1)
(PID.TID 0000.0001) // RANGE J (Lo:Hi:Step):(   1:   1:  -1)
(PID.TID 0000.0001) // RANGE K (Lo:Hi:Step):(   1:  20:   1)
(PID.TID 0000.0001) // =======================================================
(PID.TID 0000.0001) // =======================================================
(PID.TID 0000.0001) // END OF FIELD                                          =
(PID.TID 0000.0001) // =======================================================
(PID.TID 0000.0001) 
(PID.TID 0000.0001) // =======================================================
(PID.TID 0000.0001) // Field OBEt at iteration        100
(PID.TID 0000.0001) // CMIN =         -4.842000000000000E-02
(PID.TID 0000.0001) // CMAX =          4.842000000000000E-02
(PID.TID 0000.0001) // CINT =          3.586666666666666E-03
(PID.TID 0000.0001) // SYMBOLS (CMIN->CMAX): -abcdefghijklmnopqrstuvwxyz+
(PID.TID 0000.0001) //                  0.0: .
(PID.TID 0000.0001) // RANGE I (Lo:Hi:Step):(   1:  31:   1)
(PID.TID 0000.0001) // RANGE J (Lo:Hi:Step):(   1:   1:  -1)
(PID.TID 0000.0001) // RANGE K (Lo:Hi:Step):(   1:  20:   1)
(PID.TID 0000.0001) // =======================================================
(PID.TID 0000.0001) I =   1
(PID.TID 0000.0001) 
(PID.TID 0000.0001) |--K--|1
(PID.TID 0000.0001)      1 +
(PID.TID 0000.0001)      2 z
(PID.TID 0000.0001)      3 x
(PID.TID 0000.0001)      4 w
(PID.TID 0000.0001)      5 u
(PID.TID 0000.0001)      6 t
(PID.TID 0000.0001)      7 r
(PID.TID 0000.0001)      8 q
(PID.TID 0000.0001)      9 p
(PID.TID 0000.0001)     10 n
(PID.TID 0000.0001)     11 m
(PID.TID 0000.0001)     12 k
(PID.TID 0000.0001)     13 j
(PID.TID 0000.0001)     14 i
(PID.TID 0000.0001)     15 g
(PID.TID 0000.0001)     16 f
(PID.TID 0000.0001)     17 d
(PID.TID 0000.0001)     18 c
(PID.TID 0000.0001)     19 a
(PID.TID 0000.0001)     20 -
(PID.TID 0000.0001) I =  31
(PID.TID 0000.0001) 
(PID.TID 0000.0001) |--K--|1
(PID.TID 0000.0001)      1 +
(PID.TID 0000.0001)      2 z
(PID.TID 0000.0001)      3 x
(PID.TID 0000.0001)      4 w
(PID.TID 0000.0001)      5 u
(PID.TID 0000.0001)      6 t
(PID.TID 0000.0001)      7 r
(PID.TID 0000.0001)      8 q
(PID.TID 0000.0001)      9 p
(PID.TID 0000.0001)     10 n
(PID.TID 0000.0001)     11 m
(PID.TID 0000.0001)     12 k
(PID.TID 0000.0001)     13 j
(PID.TID 0000.0001)     14 i
(PID.TID 0000.0001)     15 g
(PID.TID 0000.0001)     16 f
(PID.TID 0000.0001)     17 d
(PID.TID 0000.0001)     18 c
(PID.TID 0000.0001)     19 a
(PID.TID 0000.0001)     20 -
(PID.TID 0000.0001) // =======================================================
(PID.TID 0000.0001) // END OF FIELD                                          =
(PID.TID 0000.0001) // =======================================================
(PID.TID 0000.0001) 
(PID.TID 0000.0001) // =======================================================
(PID.TID 0000.0001) // Field OBEs at iteration        100
(PID.TID 0000.0001) // CMIN =          3.500000000000000E+01
(PID.TID 0000.0001) // CMAX =          3.500000000000000E+01
(PID.TID 0000.0001) // CINT =          0.000000000000000E+00
(PID.TID 0000.0001) // SYMBOLS (CMIN->CMAX): -abcdefghijklmnopqrstuvwxyz+
(PID.TID 0000.0001) //                  0.0: .
(PID.TID 0000.0001) // RANGE I (Lo:Hi:Step):(   1:  31:   1)
(PID.TID 0000.0001) // RANGE J (Lo:Hi:Step):(   1:   1:  -1)
(PID.TID 0000.0001) // RANGE K (Lo:Hi:Step):(   1:  20:   1)
(PID.TID 0000.0001) // =======================================================
(PID.TID 0000.0001) // =======================================================
(PID.TID 0000.0001) // END OF FIELD                                          =
(PID.TID 0000.0001) // =======================================================
(PID.TID 0000.0001) 
(PID.TID 0000.0001) // =======================================================
(PID.TID 0000.0001) // Field OBWu at iteration        100
(PID.TID 0000.0001) // CMIN =         -1.609548917989767E-02
(PID.TID 0000.0001) // CMAX =          1.609548917989767E-02
(PID.TID 0000.0001) // CINT =          1.192258457770198E-03
(PID.TID 0000.0001) // SYMBOLS (CMIN->CMAX): -abcdefghijklmnopqrstuvwxyz+
(PID.TID 0000.0001) //                  0.0: .
(PID.TID 0000.0001) // RANGE I (Lo:Hi:Step):(   1:  31:   1)
(PID.TID 0000.0001) // RANGE J (Lo:Hi:Step):(   1:   1:  -1)
(PID.TID 0000.0001) // RANGE K (Lo:Hi:Step):(   1:  20:   1)
(PID.TID 0000.0001) // =======================================================
(PID.TID 0000.0001) I =   1
(PID.TID 0000.0001) 
(PID.TID 0000.0001) |--K--|1
(PID.TID 0000.0001)      1 +
(PID.TID 0000.0001)      2 +
(PID.TID 0000.0001)      3 z
(PID.TID 0000.0001)      4 y
(PID.TID 0000.0001)      5 x
(PID.TID 0000.0001)      6 v
(PID.TID 0000.0001)      7 u
(PID.TID 0000.0001)      8 s
(PID.TID 0000.0001)      9 q
(PID.TID 0000.0001)     10 o
(PID.TID 0000.0001)     11 l
(PID.TID 0000.0001)     12 j
(PID.TID 0000.0001)     13 h
(PID.TID 0000.0001)     14 f
(PID.TID 0000.0001)     15 e
(PID.TID 0000.0001)     16 c
(PID.TID 0000.0001)     17 b
(PID.TID 0000.0001)     18 a
(PID.TID 0000.0001)     19 -
(PID.TID 0000.0001)     20 -
(PID.TID 0000.0001) I =  31
(PID.TID 0000.0001) 
(PID.TID 0000.0001) |--K--|1
(PID.TID 0000.0001)      1 +
(PID.TID 0000.0001)      2 +
(PID.TID 0000.0001)      3 z
(PID.TID 0000.0001)      4 y
(PID.TID 0000.0001)      5 x
(PID.TID 0000.0001)      6 v
(PID.TID 0000.0001)      7 u
(PID.TID 0000.0001)      8 s
(PID.TID 0000.0001)      9 q
(PID.TID 0000.0001)     10 o
(PID.TID 0000.0001)     11 l
(PID.TID 0000.0001)     12 j
(PID.TID 0000.0001)     13 h
(PID.TID 0000.0001)     14 f
(PID.TID 0000.0001)     15 e
(PID.TID 0000.0001)     16 c
(PID.TID 0000.0001)     17 b
(PID.TID 0000.0001)     18 a
(PID.TID 0000.0001)     19 -
(PID.TID 0000.0001)     20 -
(PID.TID 0000.0001) // =======================================================
(PID.TID 0000.0001) // END OF FIELD                                          =
(PID.TID 0000.0001) // =======================================================
(PID.TID 0000.0001) 
(PID.TID 0000.0001) // =======================================================
(PID.TID 0000.0001) // Field OBWv at iteration        100
(PID.TID 0000.0001) // CMIN =          1.000000000000000E+32
(PID.TID 0000.0001) // CMAX =         -1.000000000000000E+32
(PID.TID 0000.0001) // CINT =          0.000000000000000E+00
(PID.TID 0000.0001) // SYMBOLS (CMIN->CMAX): -abcdefghijklmnopqrstuvwxyz+
(PID.TID 0000.0001) //                  0.0: .
(PID.TID 0000.0001) // RANGE I (Lo:Hi:Step):(   1:  31:   1)
(PID.TID 0000.0001) // RANGE J (Lo:Hi:Step):(   1:   1:  -1)
(PID.TID 0000.0001) // RANGE K (Lo:Hi:Step):(   1:  20:   1)
(PID.TID 0000.0001) // =======================================================
(PID.TID 0000.0001) // =======================================================
(PID.TID 0000.0001) // END OF FIELD                                          =
(PID.TID 0000.0001) // =======================================================
(PID.TID 0000.0001) 
(PID.TID 0000.0001) // =======================================================
(PID.TID 0000.0001) // Field OBWt at iteration        100
(PID.TID 0000.0001) // CMIN =         -4.775467712715651E-02
(PID.TID 0000.0001) // CMAX =          4.908532287284349E-02
(PID.TID 0000.0001) // CINT =          3.586666666666666E-03
(PID.TID 0000.0001) // SYMBOLS (CMIN->CMAX): -abcdefghijklmnopqrstuvwxyz+
(PID.TID 0000.0001) //                  0.0: .
(PID.TID 0000.0001) // RANGE I (Lo:Hi:Step):(   1:  31:   1)
(PID.TID 0000.0001) // RANGE J (Lo:Hi:Step):(   1:   1:  -1)
(PID.TID 0000.0001) // RANGE K (Lo:Hi:Step):(   1:  20:   1)
(PID.TID 0000.0001) // =======================================================
(PID.TID 0000.0001) I =   1
(PID.TID 0000.0001) 
(PID.TID 0000.0001) |--K--|1
(PID.TID 0000.0001)      1 +
(PID.TID 0000.0001)      2 z
(PID.TID 0000.0001)      3 y
(PID.TID 0000.0001)      4 x
(PID.TID 0000.0001)      5 w
(PID.TID 0000.0001)      6 v
(PID.TID 0000.0001)      7 t
(PID.TID 0000.0001)      8 s
(PID.TID 0000.0001)      9 r
(PID.TID 0000.0001)     10 p
(PID.TID 0000.0001)     11 o
(PID.TID 0000.0001)     12 m
(PID.TID 0000.0001)     13 l
(PID.TID 0000.0001)     14 j
(PID.TID 0000.0001)     15 i
(PID.TID 0000.0001)     16 g
(PID.TID 0000.0001)     17 e
(PID.TID 0000.0001)     18 d
(PID.TID 0000.0001)     19 b
(PID.TID 0000.0001)     20 -
(PID.TID 0000.0001) I =  31
(PID.TID 0000.0001) 
(PID.TID 0000.0001) |--K--|1
(PID.TID 0000.0001)      1 +
(PID.TID 0000.0001)      2 z
(PID.TID 0000.0001)      3 y
(PID.TID 0000.0001)      4 x
(PID.TID 0000.0001)      5 w
(PID.TID 0000.0001)      6 v
(PID.TID 0000.0001)      7 t
(PID.TID 0000.0001)      8 s
(PID.TID 0000.0001)      9 r
(PID.TID 0000.0001)     10 p
(PID.TID 0000.0001)     11 o
(PID.TID 0000.0001)     12 m
(PID.TID 0000.0001)     13 l
(PID.TID 0000.0001)     14 j
(PID.TID 0000.0001)     15 i
(PID.TID 0000.0001)     16 g
(PID.TID 0000.0001)     17 e
(PID.TID 0000.0001)     18 d
(PID.TID 0000.0001)     19 b
(PID.TID 0000.0001)     20 -
(PID.TID 0000.0001) // =======================================================
(PID.TID 0000.0001) // END OF FIELD                                          =
(PID.TID 0000.0001) // =======================================================
(PID.TID 0000.0001) 
(PID.TID 0000.0001) // =======================================================
(PID.TID 0000.0001) // Field OBWs at iteration        100
(PID.TID 0000.0001) // CMIN =          1.000000000000000E+32
(PID.TID 0000.0001) // CMAX =         -1.000000000000000E+32
(PID.TID 0000.0001) // CINT =          0.000000000000000E+00
(PID.TID 0000.0001) // SYMBOLS (CMIN->CMAX): -abcdefghijklmnopqrstuvwxyz+
(PID.TID 0000.0001) //                  0.0: .
(PID.TID 0000.0001) // RANGE I (Lo:Hi:Step):(   1:  31:   1)
(PID.TID 0000.0001) // RANGE J (Lo:Hi:Step):(   1:   1:  -1)
(PID.TID 0000.0001) // RANGE K (Lo:Hi:Step):(   1:  20:   1)
(PID.TID 0000.0001) // =======================================================
(PID.TID 0000.0001) // =======================================================
(PID.TID 0000.0001) // END OF FIELD                                          =
(PID.TID 0000.0001) // =======================================================
(PID.TID 0000.0001) 
(PID.TID 0000.0001) %CHECKPOINT       100 ckptA
(PID.TID 0000.0001)   Seconds in section "ALL                    [THE_MODEL_MAIN]":
(PID.TID 0000.0001)           User time:  4.84826302
(PID.TID 0000.0001)         System time:  0.0539920013
(PID.TID 0000.0001)     Wall clock time:  5.05243397
(PID.TID 0000.0001)          No. starts: 1
(PID.TID 0000.0001)           No. stops: 1
(PID.TID 0000.0001)   Seconds in section "INITIALISE_FIXED       [THE_MODEL_MAIN]":
(PID.TID 0000.0001)           User time:  0.0429930002
(PID.TID 0000.0001)         System time:  0.013998
(PID.TID 0000.0001)     Wall clock time:  0.0951459408
(PID.TID 0000.0001)          No. starts: 1
(PID.TID 0000.0001)           No. stops: 1
(PID.TID 0000.0001)   Seconds in section "THE_MAIN_LOOP          [THE_MODEL_MAIN]":
(PID.TID 0000.0001)           User time:  4.79427177
(PID.TID 0000.0001)         System time:  0.0319949985
(PID.TID 0000.0001)     Wall clock time:  4.89257908
(PID.TID 0000.0001)          No. starts: 1
(PID.TID 0000.0001)           No. stops: 1
(PID.TID 0000.0001)   Seconds in section "INITIALISE_VARIA    [THE_MAIN_LOOP]":
(PID.TID 0000.0001)           User time:  0.0139979981
(PID.TID 0000.0001)         System time:  0.00200000033
(PID.TID 0000.0001)     Wall clock time:  0.0172071457
(PID.TID 0000.0001)          No. starts: 1
(PID.TID 0000.0001)           No. stops: 1
(PID.TID 0000.0001)   Seconds in section "MONITOR             [THE_MAIN_LOOP]":
(PID.TID 0000.0001)           User time:  0.00400000066
(PID.TID 0000.0001)         System time:  0.
(PID.TID 0000.0001)     Wall clock time:  0.00359892845
(PID.TID 0000.0001)          No. starts: 1
(PID.TID 0000.0001)           No. stops: 1
(PID.TID 0000.0001)   Seconds in section "DO_THE_MODEL_IO     [THE_MAIN_LOOP]":
(PID.TID 0000.0001)           User time:  0.00199899822
(PID.TID 0000.0001)         System time:  0.00199900009
(PID.TID 0000.0001)     Wall clock time:  0.0135300159
(PID.TID 0000.0001)          No. starts: 1
(PID.TID 0000.0001)           No. stops: 1
(PID.TID 0000.0001)   Seconds in section "MAIN LOOP           [THE_MAIN_LOOP]":
(PID.TID 0000.0001)           User time:  4.77427477
(PID.TID 0000.0001)         System time:  0.027995998
(PID.TID 0000.0001)     Wall clock time:  4.85804701
(PID.TID 0000.0001)          No. starts: 1
(PID.TID 0000.0001)           No. stops: 1
(PID.TID 0000.0001)   Seconds in section "FORWARD_STEP        [THE_MAIN_LOOP]":
(PID.TID 0000.0001)           User time:  4.77427477
(PID.TID 0000.0001)         System time:  0.0259959977
(PID.TID 0000.0001)     Wall clock time:  4.8546207
(PID.TID 0000.0001)          No. starts: 100
(PID.TID 0000.0001)           No. stops: 100
(PID.TID 0000.0001)   Seconds in section "EXTERNAL_FIELDS_LOAD[FORWARD_STEP]":
(PID.TID 0000.0001)           User time:  0.00499923527
(PID.TID 0000.0001)         System time:  0.
(PID.TID 0000.0001)     Wall clock time:  0.00340485573
(PID.TID 0000.0001)          No. starts: 100
(PID.TID 0000.0001)           No. stops: 100
(PID.TID 0000.0001)   Seconds in section "DO_ATMOSPHERIC_PHYS [FORWARD_STEP]":
(PID.TID 0000.0001)           User time:  0.00200033188
(PID.TID 0000.0001)         System time:  0.
(PID.TID 0000.0001)     Wall clock time:  0.0033993721
(PID.TID 0000.0001)          No. starts: 100
(PID.TID 0000.0001)           No. stops: 100
(PID.TID 0000.0001)   Seconds in section "DO_OCEANIC_PHYS     [FORWARD_STEP]":
(PID.TID 0000.0001)           User time:  0.160971999
(PID.TID 0000.0001)         System time:  0.
(PID.TID 0000.0001)     Wall clock time:  0.157408714
(PID.TID 0000.0001)          No. starts: 100
(PID.TID 0000.0001)           No. stops: 100
(PID.TID 0000.0001)   Seconds in section "THERMODYNAMICS      [FORWARD_STEP]":
(PID.TID 0000.0001)           User time:  1.02884948
(PID.TID 0000.0001)         System time:  0.00100000016
(PID.TID 0000.0001)     Wall clock time:  1.04060292
(PID.TID 0000.0001)          No. starts: 100
(PID.TID 0000.0001)           No. stops: 100
(PID.TID 0000.0001)   Seconds in section "DYNAMICS            [FORWARD_STEP]":
(PID.TID 0000.0001)           User time:  1.92770474
(PID.TID 0000.0001)         System time:  0.00100000016
(PID.TID 0000.0001)     Wall clock time:  1.94709682
(PID.TID 0000.0001)          No. starts: 100
(PID.TID 0000.0001)           No. stops: 100
(PID.TID 0000.0001)   Seconds in section "UPDATE_SURF_DR     [FORWARD_STEP]":
(PID.TID 0000.0001)           User time:  0.0259964168
(PID.TID 0000.0001)         System time:  0.
(PID.TID 0000.0001)     Wall clock time:  0.0133750439
(PID.TID 0000.0001)          No. starts: 100
(PID.TID 0000.0001)           No. stops: 100
(PID.TID 0000.0001)   Seconds in section "UPDATE_CG2D        [FORWARD_STEP]":
(PID.TID 0000.0001)           User time:  0.03099446
(PID.TID 0000.0001)         System time:  0.
(PID.TID 0000.0001)     Wall clock time:  0.0355701447
(PID.TID 0000.0001)          No. starts: 100
(PID.TID 0000.0001)           No. stops: 100
(PID.TID 0000.0001)   Seconds in section "SOLVE_FOR_PRESSURE  [FORWARD_STEP]":
(PID.TID 0000.0001)           User time:  0.722887941
(PID.TID 0000.0001)         System time:  0.
(PID.TID 0000.0001)     Wall clock time:  0.730934381
(PID.TID 0000.0001)          No. starts: 100
(PID.TID 0000.0001)           No. stops: 100
(PID.TID 0000.0001)   Seconds in section "UV_CORRECTION_STEP  [FORWARD_STEP]":
(PID.TID 0000.0001)           User time:  0.198972329
(PID.TID 0000.0001)         System time:  0.
(PID.TID 0000.0001)     Wall clock time:  0.198301077
(PID.TID 0000.0001)          No. starts: 100
(PID.TID 0000.0001)           No. stops: 100
(PID.TID 0000.0001)   Seconds in section "UPDATE_ETAH        [FORWARD_STEP]":
(PID.TID 0000.0001)           User time:  0.0109964013
(PID.TID 0000.0001)         System time:  0.
(PID.TID 0000.0001)     Wall clock time:  0.0097413063
(PID.TID 0000.0001)          No. starts: 100
(PID.TID 0000.0001)           No. stops: 100
(PID.TID 0000.0001)   Seconds in section "CALC_SURF_DR      [FORWARD_STEP]":
(PID.TID 0000.0001)           User time:  0.0229967833
(PID.TID 0000.0001)         System time:  0.00199899822
(PID.TID 0000.0001)     Wall clock time:  0.0226104259
(PID.TID 0000.0001)          No. starts: 100
(PID.TID 0000.0001)           No. stops: 100
(PID.TID 0000.0001)   Seconds in section "TS_CORRECTION_STEP  [FORWARD_STEP]":
(PID.TID 0000.0001)           User time:  0.0279968232
(PID.TID 0000.0001)         System time:  0.
(PID.TID 0000.0001)     Wall clock time:  0.0355885029
(PID.TID 0000.0001)          No. starts: 100
(PID.TID 0000.0001)           No. stops: 100
(PID.TID 0000.0001)   Seconds in section "BLOCKING_EXCHANGES  [FORWARD_STEP]":
(PID.TID 0000.0001)           User time:  0.462930202
(PID.TID 0000.0001)         System time:  0.
(PID.TID 0000.0001)     Wall clock time:  0.454852343
(PID.TID 0000.0001)          No. starts: 100
(PID.TID 0000.0001)           No. stops: 100
(PID.TID 0000.0001)   Seconds in section "DO_STATEVARS_TAVE   [FORWARD_STEP]":
(PID.TID 0000.0001)           User time:  0.00299906731
(PID.TID 0000.0001)         System time:  0.
(PID.TID 0000.0001)     Wall clock time:  0.00347208977
(PID.TID 0000.0001)          No. starts: 100
(PID.TID 0000.0001)           No. stops: 100
(PID.TID 0000.0001)   Seconds in section "MONITOR             [FORWARD_STEP]":
(PID.TID 0000.0001)           User time:  0.0799928755
(PID.TID 0000.0001)         System time:  0.00300000049
(PID.TID 0000.0001)     Wall clock time:  0.0769588947
(PID.TID 0000.0001)          No. starts: 100
(PID.TID 0000.0001)           No. stops: 100
(PID.TID 0000.0001)   Seconds in section "DO_THE_MODEL_IO     [FORWARD_STEP]":
(PID.TID 0000.0001)           User time:  0.0149975419
(PID.TID 0000.0001)         System time:  0.00699900091
(PID.TID 0000.0001)     Wall clock time:  0.0559082031
(PID.TID 0000.0001)          No. starts: 100
(PID.TID 0000.0001)           No. stops: 100
(PID.TID 0000.0001)   Seconds in section "WRITE_CHECKPOINT    [FORWARD_STEP]":
(PID.TID 0000.0001)           User time:  0.00299882889
(PID.TID 0000.0001)         System time:  0.
(PID.TID 0000.0001)     Wall clock time:  0.00351572037
(PID.TID 0000.0001)          No. starts: 100
(PID.TID 0000.0001)           No. stops: 100
(PID.TID 0000.0001)   Seconds in section "WRITE_CHECKPOINT       [THE_MODEL_MAIN]":
(PID.TID 0000.0001)           User time:  0.0109982491
(PID.TID 0000.0001)         System time:  0.00799900293
(PID.TID 0000.0001)     Wall clock time:  0.0645420551
(PID.TID 0000.0001)          No. starts: 1
(PID.TID 0000.0001)           No. stops: 1
(PID.TID 0000.0001) // ======================================================
(PID.TID 0000.0001) // Tile <-> Tile communication statistics
(PID.TID 0000.0001) // ======================================================
(PID.TID 0000.0001) // o Tile number: 000001
(PID.TID 0000.0001) //         No. X exchanges =              0
(PID.TID 0000.0001) //            Max. X spins =              0
(PID.TID 0000.0001) //            Min. X spins =     1000000000
(PID.TID 0000.0001) //          Total. X spins =              0
(PID.TID 0000.0001) //            Avg. X spins =       0.00E+00
(PID.TID 0000.0001) //         No. Y exchanges =              0
(PID.TID 0000.0001) //            Max. Y spins =              0
(PID.TID 0000.0001) //            Min. Y spins =     1000000000
(PID.TID 0000.0001) //          Total. Y spins =              0
(PID.TID 0000.0001) //            Avg. Y spins =       0.00E+00
(PID.TID 0000.0001) // o Tile number: 000002
(PID.TID 0000.0001) //         No. X exchanges =              0
(PID.TID 0000.0001) //            Max. X spins =              0
(PID.TID 0000.0001) //            Min. X spins =     1000000000
(PID.TID 0000.0001) //          Total. X spins =              0
(PID.TID 0000.0001) //            Avg. X spins =       0.00E+00
(PID.TID 0000.0001) //         No. Y exchanges =              0
(PID.TID 0000.0001) //            Max. Y spins =              0
(PID.TID 0000.0001) //            Min. Y spins =     1000000000
(PID.TID 0000.0001) //          Total. Y spins =              0
(PID.TID 0000.0001) //            Avg. Y spins =       0.00E+00
(PID.TID 0000.0001) // o Thread number: 000001
(PID.TID 0000.0001) //            No. barriers =          77458
(PID.TID 0000.0001) //      Max. barrier spins =              1
(PID.TID 0000.0001) //      Min. barrier spins =              1
(PID.TID 0000.0001) //     Total barrier spins =          77458
(PID.TID 0000.0001) //      Avg. barrier spins =       1.00E+00
