(PID.TID 0000.0001) 
(PID.TID 0000.0001) // ======================================================
(PID.TID 0000.0001) //                      MITgcm UV
(PID.TID 0000.0001) //                      =========
(PID.TID 0000.0001) // ======================================================
(PID.TID 0000.0001) // execution environment starting up...
(PID.TID 0000.0001) 
(PID.TID 0000.0001) // MITgcmUV version:  checkpoint63e
(PID.TID 0000.0001) // Build user:        jmc
(PID.TID 0000.0001) // Build host:        baudelaire
(PID.TID 0000.0001) // Build date:        Mon Nov  7 16:00:51 EST 2011
(PID.TID 0000.0001) 
(PID.TID 0000.0001) // =======================================================
(PID.TID 0000.0001) // Execution Environment parameter file "eedata"
(PID.TID 0000.0001) // =======================================================
(PID.TID 0000.0001) ># Example "eedata" file
(PID.TID 0000.0001) ># Lines beginning "#" are comments
(PID.TID 0000.0001) ># nTx - No. threads per process in X
(PID.TID 0000.0001) ># nTy - No. threads per process in Y
(PID.TID 0000.0001) > &EEPARMS
(PID.TID 0000.0001) > /
(PID.TID 0000.0001) ># Note: Some systems use & as the
(PID.TID 0000.0001) ># namelist terminator. Other systems
(PID.TID 0000.0001) ># use a / character (as shown here).
(PID.TID 0000.0001) 
(PID.TID 0000.0001) // =======================================================
(PID.TID 0000.0001) // Computational Grid Specification ( see files "SIZE.h" )
(PID.TID 0000.0001) //                                  ( and "eedata"       )
(PID.TID 0000.0001) // =======================================================
(PID.TID 0000.0001)      nPx =    1 ; /* No. processes in X */
(PID.TID 0000.0001)      nPy =    1 ; /* No. processes in Y */
(PID.TID 0000.0001)      nSx =    2 ; /* No. tiles in X per process */
(PID.TID 0000.0001)      nSy =    1 ; /* No. tiles in Y per process */
(PID.TID 0000.0001)      sNx =   30 ; /* Tile size in X */
(PID.TID 0000.0001)      sNy =    1 ; /* Tile size in Y */
(PID.TID 0000.0001)      OLx =    2 ; /* Tile overlap distance in X */
(PID.TID 0000.0001)      OLy =    2 ; /* Tile overlap distance in Y */
(PID.TID 0000.0001)      nTx =    1 ; /* No. threads in X per process */
(PID.TID 0000.0001)      nTy =    1 ; /* No. threads in Y per process */
(PID.TID 0000.0001)       Nr =   20 ; /* No. levels in the vertical   */
(PID.TID 0000.0001)       Nx =   60 ; /* Total domain size in X ( = nPx*nSx*sNx ) */
(PID.TID 0000.0001)       Ny =    1 ; /* Total domain size in Y ( = nPy*nSy*sNy ) */
(PID.TID 0000.0001)   nTiles =    2 ; /* Total no. tiles per process ( = nSx*nSy ) */
(PID.TID 0000.0001)   nProcs =    1 ; /* Total no. processes ( = nPx*nPy ) */
(PID.TID 0000.0001) nThreads =    1 ; /* Total no. threads per process ( = nTx*nTy ) */
(PID.TID 0000.0001) usingMPI =    F ; /* Flag used to control whether MPI is in use */
(PID.TID 0000.0001)                   /*  note: To execute a program with MPI calls */
(PID.TID 0000.0001)                   /*  it must be launched appropriately e.g     */
(PID.TID 0000.0001)                   /*  "mpirun -np 64 ......"                    */
(PID.TID 0000.0001) useCoupler=    F ;/* Flag used to control communications with   */
(PID.TID 0000.0001)                   /*  other model components, through a coupler */
(PID.TID 0000.0001) debugMode =    F ; /* print debug msg. (sequence of S/R calls)  */
(PID.TID 0000.0001) printMapIncludesZeros=    F ; /* print zeros in Std.Output maps */
(PID.TID 0000.0001) maxLengthPrt1D=   65 /* maxLength of 1D array printed to StdOut */
(PID.TID 0000.0001) 
(PID.TID 0000.0001) // ======================================================
(PID.TID 0000.0001) // Mapping of tiles to threads
(PID.TID 0000.0001) // ======================================================
(PID.TID 0000.0001) // -o- Thread   1, tiles (   1:   2,   1:   1)
(PID.TID 0000.0001) 
(PID.TID 0000.0001) // ======================================================
(PID.TID 0000.0001) // Tile <-> Tile connectvity table
(PID.TID 0000.0001) // ======================================================
(PID.TID 0000.0001) // Tile number: 000001 (process no. = 000001)
(PID.TID 0000.0001) //        WEST: Tile = 000002, Process = 000001, Comm = put
(PID.TID 0000.0001) //                bi = 000002, bj = 000001
(PID.TID 0000.0001) //        EAST: Tile = 000002, Process = 000001, Comm = put
(PID.TID 0000.0001) //                bi = 000002, bj = 000001
(PID.TID 0000.0001) //       SOUTH: Tile = 000001, Process = 000001, Comm = put
(PID.TID 0000.0001) //                bi = 000001, bj = 000001
(PID.TID 0000.0001) //       NORTH: Tile = 000001, Process = 000001, Comm = put
(PID.TID 0000.0001) //                bi = 000001, bj = 000001
(PID.TID 0000.0001) // Tile number: 000002 (process no. = 000001)
(PID.TID 0000.0001) //        WEST: Tile = 000001, Process = 000001, Comm = put
(PID.TID 0000.0001) //                bi = 000001, bj = 000001
(PID.TID 0000.0001) //        EAST: Tile = 000001, Process = 000001, Comm = put
(PID.TID 0000.0001) //                bi = 000001, bj = 000001
(PID.TID 0000.0001) //       SOUTH: Tile = 000002, Process = 000001, Comm = put
(PID.TID 0000.0001) //                bi = 000002, bj = 000001
(PID.TID 0000.0001) //       NORTH: Tile = 000002, Process = 000001, Comm = put
(PID.TID 0000.0001) //                bi = 000002, bj = 000001
(PID.TID 0000.0001) 
(PID.TID 0000.0001)  INI_PARMS: opening model parameter file "data"
(PID.TID 0000.0001)  OPEN_COPY_DATA_FILE: opening file data
(PID.TID 0000.0001) // =======================================================
(PID.TID 0000.0001) // Parameter file "data"
(PID.TID 0000.0001) // =======================================================
(PID.TID 0000.0001) ># ====================
(PID.TID 0000.0001) ># | Model parameters |
(PID.TID 0000.0001) ># ====================
(PID.TID 0000.0001) >#
(PID.TID 0000.0001) ># Continuous equation parameters
(PID.TID 0000.0001) > &PARM01
(PID.TID 0000.0001) > Tref = 0.04842, 0.0433231, 0.0382263, 0.0331295,
(PID.TID 0000.0001) >        0.0280326, 0.0229358, 0.0178389, 0.0127421,
(PID.TID 0000.0001) >        0.00764526, 0.00254842, -0.00254842, -0.00764526,
(PID.TID 0000.0001) >       -0.0127421, -0.0178389, -0.0229358, -0.0280326,
(PID.TID 0000.0001) >       -0.0331295, -0.0382263, -0.0433231, -0.04842,
(PID.TID 0000.0001) > sRef= 20*35.,
(PID.TID 0000.0001) > viscAz=1.E-3,
(PID.TID 0000.0001) > viscAh=1.E-2,
(PID.TID 0000.0001) > no_slip_sides=.FALSE.,
(PID.TID 0000.0001) > no_slip_bottom=.FALSE.,
(PID.TID 0000.0001) > diffKhT=1.E-2
(PID.TID 0000.0001) > diffKzT=1.E-3,
(PID.TID 0000.0001) > f0=0.0,
(PID.TID 0000.0001) > beta=0.E-11,
(PID.TID 0000.0001) > eosType='LINEAR',
(PID.TID 0000.0001) > tAlpha=2.E-4,
(PID.TID 0000.0001) > sBeta =0.E-4,
(PID.TID 0000.0001) > gravity=9.81,
(PID.TID 0000.0001) > implicitFreeSurface=.TRUE.,
(PID.TID 0000.0001) > exactConserv=.TRUE.
(PID.TID 0000.0001) > nonHydrostatic=.FALSE.,
(PID.TID 0000.0001) > hFacMin=0.2,
(PID.TID 0000.0001) > implicSurfPress=0.5,
(PID.TID 0000.0001) > implicDiv2DFlow=0.5,
(PID.TID 0000.0001) > nonlinFreeSurf=3,
(PID.TID 0000.0001) > hFacInf=0.2,
(PID.TID 0000.0001) > hFacSup=1.8,
(PID.TID 0000.0001) > saltStepping=.FALSE.,
(PID.TID 0000.0001) >#- not safe to use globalFiles in multi-processors runs
(PID.TID 0000.0001) >#globalFiles=.TRUE.,
(PID.TID 0000.0001) > readBinaryPrec=64,
(PID.TID 0000.0001) > writeBinaryPrec=64,
(PID.TID 0000.0001) > writeStatePrec=64,
(PID.TID 0000.0001) > /
(PID.TID 0000.0001) >
(PID.TID 0000.0001) ># Elliptic solver parameters
(PID.TID 0000.0001) > &PARM02
(PID.TID 0000.0001) > cg2dMaxIters=1000,
(PID.TID 0000.0001) > cg2dTargetResidual=1.E-13,
(PID.TID 0000.0001) > cg3dMaxIters=400,
(PID.TID 0000.0001) > cg3dTargetResidual=1.E-13,
(PID.TID 0000.0001) > /
(PID.TID 0000.0001) >
(PID.TID 0000.0001) ># Time stepping parameters
(PID.TID 0000.0001) > &PARM03
(PID.TID 0000.0001) > nIter0=0,
(PID.TID 0000.0001) > nTimeSteps=100,
(PID.TID 0000.0001) > deltaT=500.,
(PID.TID 0000.0001) > abEps=0.1,
(PID.TID 0000.0001) > pChkptFreq=0.,
(PID.TID 0000.0001) > chkptFreq=0.,
(PID.TID 0000.0001) > dumpFreq=50000.,
(PID.TID 0000.0001) > monitorFreq=2500.,
(PID.TID 0000.0001) > monitorSelect=2,
(PID.TID 0000.0001) > /
(PID.TID 0000.0001) >
(PID.TID 0000.0001) ># Gridding parameters
(PID.TID 0000.0001) > &PARM04
(PID.TID 0000.0001) > usingCartesianGrid=.TRUE.,
(PID.TID 0000.0001) > delXfile='delXvar',
(PID.TID 0000.0001) > delY=5.E3,
(PID.TID 0000.0001) > delZ=20*10.,
(PID.TID 0000.0001) > /
(PID.TID 0000.0001) >
(PID.TID 0000.0001) ># Input datasets
(PID.TID 0000.0001) > &PARM05
(PID.TID 0000.0001) > hydrogThetaFile='T.init',
(PID.TID 0000.0001) > bathyFile='topog.slope',
(PID.TID 0000.0001) > /
(PID.TID 0000.0001) 
(PID.TID 0000.0001)  INI_PARMS ; starts to read PARM01
(PID.TID 0000.0001)  INI_PARMS ; read PARM01 : OK
(PID.TID 0000.0001)  INI_PARMS ; starts to read PARM02
(PID.TID 0000.0001)  INI_PARMS ; read PARM02 : OK
(PID.TID 0000.0001)  INI_PARMS ; starts to read PARM03
(PID.TID 0000.0001)  INI_PARMS ; read PARM03 : OK
(PID.TID 0000.0001)  INI_PARMS ; starts to read PARM04
(PID.TID 0000.0001)  INI_PARMS ; read PARM04 : OK
(PID.TID 0000.0001)  INI_PARMS ; starts to read PARM05
(PID.TID 0000.0001)  INI_PARMS ; read PARM05 : OK
(PID.TID 0000.0001)  INI_PARMS: finished reading file "data"
(PID.TID 0000.0001)  PACKAGES_BOOT: opening data.pkg
(PID.TID 0000.0001)  OPEN_COPY_DATA_FILE: opening file data.pkg
(PID.TID 0000.0001) // =======================================================
(PID.TID 0000.0001) // Parameter file "data.pkg"
(PID.TID 0000.0001) // =======================================================
(PID.TID 0000.0001) ># Packages
(PID.TID 0000.0001) > &PACKAGES
(PID.TID 0000.0001) > useOBCS=.TRUE.,
(PID.TID 0000.0001) > useMNC=.TRUE.,
(PID.TID 0000.0001) > /
(PID.TID 0000.0001) 
(PID.TID 0000.0001)  PACKAGES_BOOT: finished reading data.pkg
(PID.TID 0000.0001)  MNC_READPARMS: opening file 'data.mnc'
(PID.TID 0000.0001)  OPEN_COPY_DATA_FILE: opening file data.mnc
(PID.TID 0000.0001) // =======================================================
(PID.TID 0000.0001) // Parameter file "data.mnc"
(PID.TID 0000.0001) // =======================================================
(PID.TID 0000.0001) ># Example "data.mnc" file
(PID.TID 0000.0001) ># Lines beginning "#" are comments
(PID.TID 0000.0001) > &MNC_01
(PID.TID 0000.0001) ># mnc_echo_gvtypes=.FALSE.,
(PID.TID 0000.0001) ># mnc_use_indir=.FALSE.,
(PID.TID 0000.0001) > mnc_use_outdir=.TRUE.,
(PID.TID 0000.0001) > mnc_outdir_str='mnc_test_',
(PID.TID 0000.0001) >#mnc_outdir_date=.TRUE.,
(PID.TID 0000.0001) > monitor_mnc=.FALSE.,
(PID.TID 0000.0001) >#snapshot_mnc=.FALSE.,
(PID.TID 0000.0001) >#timeave_mnc=.FALSE.,
(PID.TID 0000.0001) > pickup_read_mnc=.FALSE.,
(PID.TID 0000.0001) > pickup_write_mnc=.FALSE.,
(PID.TID 0000.0001) > /
(PID.TID 0000.0001) ># Note: Some systems use / as the
(PID.TID 0000.0001) ># namelist terminator. Other systems
(PID.TID 0000.0001) ># use a & character (as shown here).
(PID.TID 0000.0001) 
(PID.TID 0000.0001)  MNC_READPARMS: finished reading data.mnc
(PID.TID 0000.0001)  OBCS_READPARMS: opening data.obcs
(PID.TID 0000.0001)  OPEN_COPY_DATA_FILE: opening file data.obcs
(PID.TID 0000.0001) // =======================================================
(PID.TID 0000.0001) // Parameter file "data.obcs"
(PID.TID 0000.0001) // =======================================================
(PID.TID 0000.0001) ># Open-boundaries
(PID.TID 0000.0001) > &OBCS_PARM01
(PID.TID 0000.0001) > OB_Ieast=-1,
(PID.TID 0000.0001) > OB_Iwest=1,
(PID.TID 0000.0001) > /
(PID.TID 0000.0001) >
(PID.TID 0000.0001) 
(PID.TID 0000.0001)  OBCS_READPARMS: finished reading data.obcs
(PID.TID 0000.0001)  Northern OB global indices : OB_Jnorth =
(PID.TID 0000.0001)    60 @        0                            /* I =  1: 60 */
(PID.TID 0000.0001)  Southern OB global indices : OB_Jsouth =
(PID.TID 0000.0001)    60 @        0                            /* I =  1: 60 */
(PID.TID 0000.0001)  Eastern  OB global indices : OB_Ieast =
(PID.TID 0000.0001)                      60                     /* J =  1 */
(PID.TID 0000.0001)  Western  OB global indices : OB_Iwest =
(PID.TID 0000.0001)                       1                     /* J =  1 */
(PID.TID 0000.0001) 
(PID.TID 0000.0001) SET_PARMS: done
(PID.TID 0000.0001)  MDS_READVEC_LOC: open file: delXvar
(PID.TID 0000.0001) S/R LOAD_GRID_SPACING: delX loaded from file: delXvar
(PID.TID 0000.0001) Enter INI_VERTICAL_GRID: setInterFDr=    T ; setCenterDr=    F
(PID.TID 0000.0001) %MON XC_max                       =   1.2972950819672E+04
(PID.TID 0000.0001) %MON XC_min                       =   1.0901639344262E+02
(PID.TID 0000.0001) %MON XC_mean                      =   6.5409836065574E+03
(PID.TID 0000.0001) %MON XC_sd                        =   3.7759141042143E+03
(PID.TID 0000.0001) %MON XG_max                       =   1.2863934426229E+04
(PID.TID 0000.0001) %MON XG_min                       =   0.0000000000000E+00
(PID.TID 0000.0001) %MON XG_mean                      =   6.4319672131147E+03
(PID.TID 0000.0001) %MON XG_sd                        =   3.7759141042143E+03
(PID.TID 0000.0001) %MON DXC_max                      =   2.1803278688525E+02
(PID.TID 0000.0001) %MON DXC_min                      =   2.1803278688525E+02
(PID.TID 0000.0001) %MON DXC_mean                     =   2.1803278688525E+02
(PID.TID 0000.0001) %MON DXC_sd                       =   1.4210854715202E-13
(PID.TID 0000.0001) %MON DXF_max                      =   2.1803278688525E+02
(PID.TID 0000.0001) %MON DXF_min                      =   2.1803278688525E+02
(PID.TID 0000.0001) %MON DXF_mean                     =   2.1803278688525E+02
(PID.TID 0000.0001) %MON DXF_sd                       =   1.4210854715202E-13
(PID.TID 0000.0001) %MON DXG_max                      =   2.1803278688525E+02
(PID.TID 0000.0001) %MON DXG_min                      =   2.1803278688525E+02
(PID.TID 0000.0001) %MON DXG_mean                     =   2.1803278688525E+02
(PID.TID 0000.0001) %MON DXG_sd                       =   1.4210854715202E-13
(PID.TID 0000.0001) %MON DXV_max                      =   2.1803278688525E+02
(PID.TID 0000.0001) %MON DXV_min                      =   2.1803278688525E+02
(PID.TID 0000.0001) %MON DXV_mean                     =   2.1803278688525E+02
(PID.TID 0000.0001) %MON DXV_sd                       =   1.4210854715202E-13
(PID.TID 0000.0001) %MON YC_max                       =   2.5000000000000E+03
(PID.TID 0000.0001) %MON YC_min                       =   2.5000000000000E+03
(PID.TID 0000.0001) %MON YC_mean                      =   2.5000000000000E+03
(PID.TID 0000.0001) %MON YC_sd                        =   0.0000000000000E+00
(PID.TID 0000.0001) %MON YG_max                       =   0.0000000000000E+00
(PID.TID 0000.0001) %MON YG_min                       =   0.0000000000000E+00
(PID.TID 0000.0001) %MON YG_mean                      =   0.0000000000000E+00
(PID.TID 0000.0001) %MON YG_sd                        =   0.0000000000000E+00
(PID.TID 0000.0001) %MON DYC_max                      =   5.0000000000000E+03
(PID.TID 0000.0001) %MON DYC_min                      =   5.0000000000000E+03
(PID.TID 0000.0001) %MON DYC_mean                     =   5.0000000000000E+03
(PID.TID 0000.0001) %MON DYC_sd                       =   0.0000000000000E+00
(PID.TID 0000.0001) %MON DYF_max                      =   5.0000000000000E+03
(PID.TID 0000.0001) %MON DYF_min                      =   5.0000000000000E+03
(PID.TID 0000.0001) %MON DYF_mean                     =   5.0000000000000E+03
(PID.TID 0000.0001) %MON DYF_sd                       =   0.0000000000000E+00
(PID.TID 0000.0001) %MON DYG_max                      =   5.0000000000000E+03
(PID.TID 0000.0001) %MON DYG_min                      =   5.0000000000000E+03
(PID.TID 0000.0001) %MON DYG_mean                     =   5.0000000000000E+03
(PID.TID 0000.0001) %MON DYG_sd                       =   0.0000000000000E+00
(PID.TID 0000.0001) %MON DYU_max                      =   5.0000000000000E+03
(PID.TID 0000.0001) %MON DYU_min                      =   5.0000000000000E+03
(PID.TID 0000.0001) %MON DYU_mean                     =   5.0000000000000E+03
(PID.TID 0000.0001) %MON DYU_sd                       =   0.0000000000000E+00
(PID.TID 0000.0001) %MON RA_max                       =   1.0901639344262E+06
(PID.TID 0000.0001) %MON RA_min                       =   1.0901639344262E+06
(PID.TID 0000.0001) %MON RA_mean                      =   1.0901639344262E+06
(PID.TID 0000.0001) %MON RA_sd                        =   0.0000000000000E+00
(PID.TID 0000.0001) %MON RAW_max                      =   1.0901639344262E+06
(PID.TID 0000.0001) %MON RAW_min                      =   1.0901639344262E+06
(PID.TID 0000.0001) %MON RAW_mean                     =   1.0901639344262E+06
(PID.TID 0000.0001) %MON RAW_sd                       =   0.0000000000000E+00
(PID.TID 0000.0001) %MON RAS_max                      =   1.0901639344262E+06
(PID.TID 0000.0001) %MON RAS_min                      =   1.0901639344262E+06
(PID.TID 0000.0001) %MON RAS_mean                     =   1.0901639344262E+06
(PID.TID 0000.0001) %MON RAS_sd                       =   0.0000000000000E+00
(PID.TID 0000.0001) %MON RAZ_max                      =   1.0901639344262E+06
(PID.TID 0000.0001) %MON RAZ_min                      =   1.0901639344262E+06
(PID.TID 0000.0001) %MON RAZ_mean                     =   1.0901639344262E+06
(PID.TID 0000.0001) %MON RAZ_sd                       =   0.0000000000000E+00
(PID.TID 0000.0001) %MON AngleCS_max                  =   1.0000000000000E+00
(PID.TID 0000.0001) %MON AngleCS_min                  =   1.0000000000000E+00
(PID.TID 0000.0001) %MON AngleCS_mean                 =   1.0000000000000E+00
(PID.TID 0000.0001) %MON AngleCS_sd                   =   0.0000000000000E+00
(PID.TID 0000.0001) %MON AngleSN_max                  =   0.0000000000000E+00
(PID.TID 0000.0001) %MON AngleSN_min                  =   0.0000000000000E+00
(PID.TID 0000.0001) %MON AngleSN_mean                 =   0.0000000000000E+00
(PID.TID 0000.0001) %MON AngleSN_sd                   =   0.0000000000000E+00
(PID.TID 0000.0001)  MDS_READ_FIELD: opening global file: topog.slope
(PID.TID 0000.0001) // =======================================================
(PID.TID 0000.0001) // Field Model R_low (ini_masks_etc)
(PID.TID 0000.0001) // CMIN =         -2.000000000000000E+02
(PID.TID 0000.0001) // CMAX =         -4.000000000000000E+01
(PID.TID 0000.0001) // CINT =          5.925925925925926E+00
(PID.TID 0000.0001) // SYMBOLS (CMIN->CMAX): -abcdefghijklmnopqrstuvwxyz+
(PID.TID 0000.0001) //                  0.0: .
(PID.TID 0000.0001) // RANGE I (Lo:Hi:Step):(    -1:    62:     1)
(PID.TID 0000.0001) // RANGE J (Lo:Hi:Step):(     3:    -1:    -1)
(PID.TID 0000.0001) // RANGE K (Lo:Hi:Step):(   1:   1:   1)
(PID.TID 0000.0001) // =======================================================
(PID.TID 0000.0001) K =   1
(PID.TID 0000.0001) //                I=8       I=18      I=28      I=34      I=44      I=54
(PID.TID 0000.0001) // |--J--|101234567|901234567|901234567|901290123|567890123|567890123|56789012
(PID.TID 0000.0001) //      3 +.-----------abcdefghikkmnopqrstvwstvwxyz++++++++++++++++++++++++.--
(PID.TID 0000.0001) //      2 +.-----------abcdefghikkmnopqrstvwstvwxyz++++++++++++++++++++++++.--
(PID.TID 0000.0001) //      1 +.-----------abcdefghikkmnopqrstvwstvwxyz++++++++++++++++++++++++.--
(PID.TID 0000.0001) //      0 +.-----------abcdefghikkmnopqrstvwstvwxyz++++++++++++++++++++++++.--
(PID.TID 0000.0001) //     -1 +.-----------abcdefghikkmnopqrstvwstvwxyz++++++++++++++++++++++++.--
(PID.TID 0000.0001) // =======================================================
(PID.TID 0000.0001) // END OF FIELD                                          =
(PID.TID 0000.0001) // =======================================================
(PID.TID 0000.0001) 
(PID.TID 0000.0001) // =======================================================
(PID.TID 0000.0001) // Field Model Ro_surf (ini_masks_etc)
(PID.TID 0000.0001) // CMIN =          1.000000000000000E+32
(PID.TID 0000.0001) // CMAX =         -1.000000000000000E+32
(PID.TID 0000.0001) // CINT =          0.000000000000000E+00
(PID.TID 0000.0001) // SYMBOLS (CMIN->CMAX): -abcdefghijklmnopqrstuvwxyz+
(PID.TID 0000.0001) //                  0.0: .
(PID.TID 0000.0001) // RANGE I (Lo:Hi:Step):(    -1:    62:     1)
(PID.TID 0000.0001) // RANGE J (Lo:Hi:Step):(     3:    -1:    -1)
(PID.TID 0000.0001) // RANGE K (Lo:Hi:Step):(   1:   1:   1)
(PID.TID 0000.0001) // =======================================================
(PID.TID 0000.0001) // =======================================================
(PID.TID 0000.0001) // END OF FIELD                                          =
(PID.TID 0000.0001) // =======================================================
(PID.TID 0000.0001) 
(PID.TID 0000.0001) // =======================================================
(PID.TID 0000.0001) // Field hFacC at iteration          0
(PID.TID 0000.0001) // CMIN =          1.000000000000000E+00
(PID.TID 0000.0001) // CMAX =          1.000000000000000E+00
(PID.TID 0000.0001) // CINT =          0.000000000000000E+00
(PID.TID 0000.0001) // SYMBOLS (CMIN->CMAX): -abcdefghijklmnopqrstuvwxyz+
(PID.TID 0000.0001) //                  0.0: .
(PID.TID 0000.0001) // RANGE I (Lo:Hi:Step):(    -1:    62:     1)
(PID.TID 0000.0001) // RANGE J (Lo:Hi:Step):(     3:    -1:    -1)
(PID.TID 0000.0001) // RANGE K (Lo:Hi:Step):(   1:   1:   1)
(PID.TID 0000.0001) // =======================================================
(PID.TID 0000.0001) // =======================================================
(PID.TID 0000.0001) // END OF FIELD                                          =
(PID.TID 0000.0001) // =======================================================
(PID.TID 0000.0001) 
(PID.TID 0000.0001) // =======================================================
(PID.TID 0000.0001) // Field hFacW at iteration          0
(PID.TID 0000.0001) // CMIN =          1.000000000000000E+00
(PID.TID 0000.0001) // CMAX =          1.000000000000000E+00
(PID.TID 0000.0001) // CINT =          0.000000000000000E+00
(PID.TID 0000.0001) // SYMBOLS (CMIN->CMAX): -abcdefghijklmnopqrstuvwxyz+
(PID.TID 0000.0001) //                  0.0: .
(PID.TID 0000.0001) // RANGE I (Lo:Hi:Step):(    -1:    62:     1)
(PID.TID 0000.0001) // RANGE J (Lo:Hi:Step):(     3:    -1:    -1)
(PID.TID 0000.0001) // RANGE K (Lo:Hi:Step):(   1:   1:   1)
(PID.TID 0000.0001) // =======================================================
(PID.TID 0000.0001) // =======================================================
(PID.TID 0000.0001) // END OF FIELD                                          =
(PID.TID 0000.0001) // =======================================================
(PID.TID 0000.0001) 
(PID.TID 0000.0001) // =======================================================
(PID.TID 0000.0001) // Field hFacS at iteration          0
(PID.TID 0000.0001) // CMIN =          1.000000000000000E+00
(PID.TID 0000.0001) // CMAX =          1.000000000000000E+00
(PID.TID 0000.0001) // CINT =          0.000000000000000E+00
(PID.TID 0000.0001) // SYMBOLS (CMIN->CMAX): -abcdefghijklmnopqrstuvwxyz+
(PID.TID 0000.0001) //                  0.0: .
(PID.TID 0000.0001) // RANGE I (Lo:Hi:Step):(    -1:    62:     1)
(PID.TID 0000.0001) // RANGE J (Lo:Hi:Step):(     3:    -1:    -1)
(PID.TID 0000.0001) // RANGE K (Lo:Hi:Step):(   1:   1:   1)
(PID.TID 0000.0001) // =======================================================
(PID.TID 0000.0001) // =======================================================
(PID.TID 0000.0001) // END OF FIELD                                          =
(PID.TID 0000.0001) // =======================================================
(PID.TID 0000.0001) 
(PID.TID 0000.0001) GAD_INIT_FIXED: GAD_OlMinSize=  1  0  1
(PID.TID 0000.0001) 
(PID.TID 0000.0001) // ===================================
(PID.TID 0000.0001) // GAD parameters :
(PID.TID 0000.0001) // ===================================
(PID.TID 0000.0001) tempAdvScheme =   /* Temp. Horiz.Advection scheme selector */
(PID.TID 0000.0001)                       2
(PID.TID 0000.0001)     ;
(PID.TID 0000.0001) tempVertAdvScheme =   /* Temp. Vert. Advection scheme selector */
(PID.TID 0000.0001)                       2
(PID.TID 0000.0001)     ;
(PID.TID 0000.0001) tempMultiDimAdvec =   /* use Muti-Dim Advec method for Temp */
(PID.TID 0000.0001)                   F
(PID.TID 0000.0001)     ;
(PID.TID 0000.0001) tempSOM_Advection = /* use 2nd Order Moment Advection for Temp */
(PID.TID 0000.0001)                   F
(PID.TID 0000.0001)     ;
(PID.TID 0000.0001) AdamsBashforthGt = /* apply Adams-Bashforth extrapolation on Gt */
(PID.TID 0000.0001)                   T
(PID.TID 0000.0001)     ;
(PID.TID 0000.0001) AdamsBashforth_T = /* apply Adams-Bashforth extrapolation on Temp */
(PID.TID 0000.0001)                   F
(PID.TID 0000.0001)     ;
(PID.TID 0000.0001) saltAdvScheme =   /* Salt. Horiz.advection scheme selector */
(PID.TID 0000.0001)                       2
(PID.TID 0000.0001)     ;
(PID.TID 0000.0001) saltVertAdvScheme =   /* Salt. Vert. Advection scheme selector */
(PID.TID 0000.0001)                       2
(PID.TID 0000.0001)     ;
(PID.TID 0000.0001) saltMultiDimAdvec =   /* use Muti-Dim Advec method for Salt */
(PID.TID 0000.0001)                   F
(PID.TID 0000.0001)     ;
(PID.TID 0000.0001) saltSOM_Advection = /* use 2nd Order Moment Advection for Salt */
(PID.TID 0000.0001)                   F
(PID.TID 0000.0001)     ;
(PID.TID 0000.0001) AdamsBashforthGs = /* apply Adams-Bashforth extrapolation on Gs */
(PID.TID 0000.0001)                   F
(PID.TID 0000.0001)     ;
(PID.TID 0000.0001) AdamsBashforth_S = /* apply Adams-Bashforth extrapolation on Salt */
(PID.TID 0000.0001)                   F
(PID.TID 0000.0001)     ;
(PID.TID 0000.0001) // ===================================
(PID.TID 0000.0001) %MON fCori_max                    =   0.0000000000000E+00
(PID.TID 0000.0001) %MON fCori_min                    =   0.0000000000000E+00
(PID.TID 0000.0001) %MON fCori_mean                   =   0.0000000000000E+00
(PID.TID 0000.0001) %MON fCori_sd                     =   0.0000000000000E+00
(PID.TID 0000.0001) %MON fCoriG_max                   =   0.0000000000000E+00
(PID.TID 0000.0001) %MON fCoriG_min                   =   0.0000000000000E+00
(PID.TID 0000.0001) %MON fCoriG_mean                  =   0.0000000000000E+00
(PID.TID 0000.0001) %MON fCoriG_sd                    =   0.0000000000000E+00
(PID.TID 0000.0001) %MON fCoriCos_max                 =   0.0000000000000E+00
(PID.TID 0000.0001) %MON fCoriCos_min                 =   0.0000000000000E+00
(PID.TID 0000.0001) %MON fCoriCos_mean                =   0.0000000000000E+00
(PID.TID 0000.0001) %MON fCoriCos_sd                  =   0.0000000000000E+00
(PID.TID 0000.0001) INI_CG2D: CG2D normalisation factor =  8.7213114754098383E-04
(PID.TID 0000.0001) 
(PID.TID 0000.0001) // =======================================================
(PID.TID 0000.0001) // Model configuration
(PID.TID 0000.0001) // =======================================================
(PID.TID 0000.0001) //
(PID.TID 0000.0001) // "Physical" paramters ( PARM01 in namelist )
(PID.TID 0000.0001) //
(PID.TID 0000.0001) buoyancyRelation = /* Type of relation to get Buoyancy */
(PID.TID 0000.0001)               'OCEANIC'
(PID.TID 0000.0001)     ;
(PID.TID 0000.0001) fluidIsAir   =  /* fluid major constituent is Air */
(PID.TID 0000.0001)                   F
(PID.TID 0000.0001)     ;
(PID.TID 0000.0001) fluidIsWater =  /* fluid major constituent is Water */
(PID.TID 0000.0001)                   T
(PID.TID 0000.0001)     ;
(PID.TID 0000.0001) usingPCoords =  /* use p (or p*) vertical coordinate */
(PID.TID 0000.0001)                   F
(PID.TID 0000.0001)     ;
(PID.TID 0000.0001) usingZCoords =  /* use z (or z*) vertical coordinate */
(PID.TID 0000.0001)                   T
(PID.TID 0000.0001)     ;
(PID.TID 0000.0001) tRef =   /* Reference temperature profile ( oC or K ) */
(PID.TID 0000.0001)                 4.842000000000000E-02,      /* K =  1 */
(PID.TID 0000.0001)                 4.332310000000000E-02,      /* K =  2 */
(PID.TID 0000.0001)                 3.822630000000000E-02,      /* K =  3 */
(PID.TID 0000.0001)                 3.312950000000000E-02,      /* K =  4 */
(PID.TID 0000.0001)                 2.803260000000000E-02,      /* K =  5 */
(PID.TID 0000.0001)                 2.293580000000000E-02,      /* K =  6 */
(PID.TID 0000.0001)                 1.783890000000000E-02,      /* K =  7 */
(PID.TID 0000.0001)                 1.274210000000000E-02,      /* K =  8 */
(PID.TID 0000.0001)                 7.645260000000000E-03,      /* K =  9 */
(PID.TID 0000.0001)                 2.548420000000000E-03,      /* K = 10 */
(PID.TID 0000.0001)                -2.548420000000000E-03,      /* K = 11 */
(PID.TID 0000.0001)                -7.645260000000000E-03,      /* K = 12 */
(PID.TID 0000.0001)                -1.274210000000000E-02,      /* K = 13 */
(PID.TID 0000.0001)                -1.783890000000000E-02,      /* K = 14 */
(PID.TID 0000.0001)                -2.293580000000000E-02,      /* K = 15 */
(PID.TID 0000.0001)                -2.803260000000000E-02,      /* K = 16 */
(PID.TID 0000.0001)                -3.312950000000000E-02,      /* K = 17 */
(PID.TID 0000.0001)                -3.822630000000000E-02,      /* K = 18 */
(PID.TID 0000.0001)                -4.332310000000000E-02,      /* K = 19 */
(PID.TID 0000.0001)                -4.842000000000000E-02       /* K = 20 */
(PID.TID 0000.0001)     ;
(PID.TID 0000.0001) sRef =   /* Reference salinity profile ( psu ) */
(PID.TID 0000.0001)    20 @  3.500000000000000E+01              /* K =  1: 20 */
(PID.TID 0000.0001)     ;
(PID.TID 0000.0001) viscAh  =   /* Lateral eddy viscosity ( m^2/s ) */
(PID.TID 0000.0001)                 1.000000000000000E-02
(PID.TID 0000.0001)     ;
(PID.TID 0000.0001) viscAhMax = /* Maximum lateral eddy viscosity ( m^2/s ) */
(PID.TID 0000.0001)                 1.000000000000000E+21
(PID.TID 0000.0001)     ;
(PID.TID 0000.0001) viscAhGrid = /* Grid dependent lateral eddy viscosity ( non-dim. ) */
(PID.TID 0000.0001)                 0.000000000000000E+00
(PID.TID 0000.0001)     ;
(PID.TID 0000.0001) useFullLeith = /* Use Full Form of Leith Viscosity on/off flag*/
(PID.TID 0000.0001)                   F
(PID.TID 0000.0001)     ;
(PID.TID 0000.0001) useStrainTensionVisc= /* Use StrainTension Form of Viscous Operator flag*/
(PID.TID 0000.0001)                   F
(PID.TID 0000.0001)     ;
(PID.TID 0000.0001) useAreaViscLength = /* Use area for visc length instead of geom. mean*/
(PID.TID 0000.0001)                   F
(PID.TID 0000.0001)     ;
(PID.TID 0000.0001) viscC2leith = /* Leith harmonic visc. factor (on grad(vort),non-dim.) */
(PID.TID 0000.0001)                 0.000000000000000E+00
(PID.TID 0000.0001)     ;
(PID.TID 0000.0001) viscC2leithD = /* Leith harmonic viscosity factor (on grad(div),non-dim.)*/
(PID.TID 0000.0001)                 0.000000000000000E+00
(PID.TID 0000.0001)     ;
(PID.TID 0000.0001) viscC2smag = /* Smagorinsky harmonic viscosity factor (non-dim.) */
(PID.TID 0000.0001)                 0.000000000000000E+00
(PID.TID 0000.0001)     ;
(PID.TID 0000.0001) viscA4  =   /* Lateral biharmonic viscosity ( m^4/s ) */
(PID.TID 0000.0001)                 0.000000000000000E+00
(PID.TID 0000.0001)     ;
(PID.TID 0000.0001) viscA4Max = /* Maximum biharmonic viscosity ( m^2/s ) */
(PID.TID 0000.0001)                 1.000000000000000E+21
(PID.TID 0000.0001)     ;
(PID.TID 0000.0001) viscA4Grid = /* Grid dependent biharmonic viscosity ( non-dim. ) */
(PID.TID 0000.0001)                 0.000000000000000E+00
(PID.TID 0000.0001)     ;
(PID.TID 0000.0001) viscC4leith = /* Leith biharm viscosity factor (on grad(vort), non-dim.)*/
(PID.TID 0000.0001)                 0.000000000000000E+00
(PID.TID 0000.0001)     ;
(PID.TID 0000.0001) viscC4leithD = /* Leith biharm viscosity factor (on grad(div), non-dim.) */
(PID.TID 0000.0001)                 0.000000000000000E+00
(PID.TID 0000.0001)     ;
(PID.TID 0000.0001) viscC4Smag = /* Smagorinsky biharm viscosity factor (non-dim) */
(PID.TID 0000.0001)                 0.000000000000000E+00
(PID.TID 0000.0001)     ;
(PID.TID 0000.0001) no_slip_sides =  /* Viscous BCs: No-slip sides */
(PID.TID 0000.0001)                   F
(PID.TID 0000.0001)     ;
(PID.TID 0000.0001) sideDragFactor = /* side-drag scaling factor (non-dim) */
(PID.TID 0000.0001)                 2.000000000000000E+00
(PID.TID 0000.0001)     ;
(PID.TID 0000.0001) viscArNr = /* vertical profile of vertical viscosity ( m^2/s )*/
(PID.TID 0000.0001)    20 @  1.000000000000000E-03              /* K =  1: 20 */
(PID.TID 0000.0001)     ;
(PID.TID 0000.0001) no_slip_bottom =  /* Viscous BCs: No-slip bottom */
(PID.TID 0000.0001)                   F
(PID.TID 0000.0001)     ;
(PID.TID 0000.0001) bottomDragLinear = /* linear bottom-drag coefficient ( m/s ) */
(PID.TID 0000.0001)                 0.000000000000000E+00
(PID.TID 0000.0001)     ;
(PID.TID 0000.0001) bottomDragQuadratic = /* quadratic bottom-drag coefficient (-) */
(PID.TID 0000.0001)                 0.000000000000000E+00
(PID.TID 0000.0001)     ;
(PID.TID 0000.0001) diffKhT =   /* Laplacian diffusion of heat laterally ( m^2/s ) */
(PID.TID 0000.0001)                 1.000000000000000E-02
(PID.TID 0000.0001)     ;
(PID.TID 0000.0001) diffK4T =   /* Biharmonic diffusion of heat laterally ( m^4/s ) */
(PID.TID 0000.0001)                 0.000000000000000E+00
(PID.TID 0000.0001)     ;
(PID.TID 0000.0001) diffKhS =   /* Laplacian diffusion of salt laterally ( m^2/s ) */
(PID.TID 0000.0001)                 0.000000000000000E+00
(PID.TID 0000.0001)     ;
(PID.TID 0000.0001) diffK4S =   /* Biharmonic diffusion of salt laterally ( m^4/s ) */
(PID.TID 0000.0001)                 0.000000000000000E+00
(PID.TID 0000.0001)     ;
(PID.TID 0000.0001) diffKrNrT = /* vertical profile of vertical diffusion of Temp ( m^2/s )*/
(PID.TID 0000.0001)    20 @  1.000000000000000E-03              /* K =  1: 20 */
(PID.TID 0000.0001)     ;
(PID.TID 0000.0001) diffKrNrS = /* vertical profile of vertical diffusion of Salt ( m^2/s )*/
(PID.TID 0000.0001)    20 @  0.000000000000000E+00              /* K =  1: 20 */
(PID.TID 0000.0001)     ;
(PID.TID 0000.0001) diffKrBL79surf = /* Surface diffusion for Bryan and Lewis 79 ( m^2/s ) */
(PID.TID 0000.0001)                 0.000000000000000E+00
(PID.TID 0000.0001)     ;
(PID.TID 0000.0001) diffKrBL79deep = /* Deep diffusion for Bryan and Lewis 1979 ( m^2/s ) */
(PID.TID 0000.0001)                 0.000000000000000E+00
(PID.TID 0000.0001)     ;
(PID.TID 0000.0001) diffKrBL79scl = /* Depth scale for Bryan and Lewis 1979 ( m ) */
(PID.TID 0000.0001)                 2.000000000000000E+02
(PID.TID 0000.0001)     ;
(PID.TID 0000.0001) diffKrBL79Ho = /* Turning depth for Bryan and Lewis 1979 ( m ) */
(PID.TID 0000.0001)                -2.000000000000000E+03
(PID.TID 0000.0001)     ;
(PID.TID 0000.0001) ivdc_kappa = /* Implicit Vertical Diffusivity for Convection ( m^2/s) */
(PID.TID 0000.0001)                 0.000000000000000E+00
(PID.TID 0000.0001)     ;
(PID.TID 0000.0001) hMixCriteria=  /* Criteria for mixed-layer diagnostic */
(PID.TID 0000.0001)                -8.000000000000000E-01
(PID.TID 0000.0001)     ;
(PID.TID 0000.0001) dRhoSmall =  /* Parameter for mixed-layer diagnostic */
(PID.TID 0000.0001)                 1.000000000000000E-06
(PID.TID 0000.0001)     ;
(PID.TID 0000.0001) hMixSmooth=  /* Smoothing parameter for mixed-layer diagnostic */
(PID.TID 0000.0001)                 0.000000000000000E+00
(PID.TID 0000.0001)     ;
(PID.TID 0000.0001) eosType =  /* Type of Equation of State */
(PID.TID 0000.0001)               'LINEAR'
(PID.TID 0000.0001)     ;
(PID.TID 0000.0001) tAlpha =   /* Linear EOS thermal expansion coefficient ( 1/oC ) */
(PID.TID 0000.0001)                 2.000000000000000E-04
(PID.TID 0000.0001)     ;
(PID.TID 0000.0001) sBeta =   /* Linear EOS haline contraction coefficient ( 1/psu ) */
(PID.TID 0000.0001)                 0.000000000000000E+00
(PID.TID 0000.0001)     ;
(PID.TID 0000.0001) rhonil =   /* Reference density ( kg/m^3 ) */
(PID.TID 0000.0001)                 9.998000000000000E+02
(PID.TID 0000.0001)     ;
(PID.TID 0000.0001) rhoConst =   /* Reference density ( kg/m^3 ) */
(PID.TID 0000.0001)                 9.998000000000000E+02
(PID.TID 0000.0001)     ;
(PID.TID 0000.0001) rhoFacC = /* normalized Reference density @ cell-Center (-) */
(PID.TID 0000.0001)    20 @  1.000000000000000E+00              /* K =  1: 20 */
(PID.TID 0000.0001)     ;
(PID.TID 0000.0001) rhoFacF = /* normalized Reference density @ W-Interface (-) */
(PID.TID 0000.0001)    21 @  1.000000000000000E+00              /* K =  1: 21 */
(PID.TID 0000.0001)     ;
(PID.TID 0000.0001) rhoConstFresh =   /* Reference density ( kg/m^3 ) */
(PID.TID 0000.0001)                 9.998000000000000E+02
(PID.TID 0000.0001)     ;
(PID.TID 0000.0001) gravity =   /* Gravitational acceleration ( m/s^2 ) */
(PID.TID 0000.0001)                 9.810000000000000E+00
(PID.TID 0000.0001)     ;
(PID.TID 0000.0001) gBaro =   /* Barotropic gravity ( m/s^2 ) */
(PID.TID 0000.0001)                 9.810000000000000E+00
(PID.TID 0000.0001)     ;
(PID.TID 0000.0001) rotationPeriod =   /* Rotation Period ( s ) */
(PID.TID 0000.0001)                 8.616400000000000E+04
(PID.TID 0000.0001)     ;
(PID.TID 0000.0001) omega =   /* Angular velocity ( rad/s ) */
(PID.TID 0000.0001)                 7.292123516990375E-05
(PID.TID 0000.0001)     ;
(PID.TID 0000.0001) f0 =   /* Reference coriolis parameter ( 1/s ) */
(PID.TID 0000.0001)                 0.000000000000000E+00
(PID.TID 0000.0001)     ;
(PID.TID 0000.0001) beta =   /* Beta ( 1/(m.s) ) */
(PID.TID 0000.0001)                 0.000000000000000E+00
(PID.TID 0000.0001)     ;
(PID.TID 0000.0001) fPrime =   /* Second coriolis parameter ( 1/s ) */
(PID.TID 0000.0001)                 0.000000000000000E+00
(PID.TID 0000.0001)     ;
(PID.TID 0000.0001) rigidLid =   /* Rigid lid on/off flag */
(PID.TID 0000.0001)                   F
(PID.TID 0000.0001)     ;
(PID.TID 0000.0001) implicitFreeSurface =   /* Implicit free surface on/off flag */
(PID.TID 0000.0001)                   T
(PID.TID 0000.0001)     ;
(PID.TID 0000.0001) freeSurfFac =   /* Implicit free surface factor */
(PID.TID 0000.0001)                 1.000000000000000E+00
(PID.TID 0000.0001)     ;
(PID.TID 0000.0001) implicSurfPress =  /* Surface Pressure implicit factor (0-1)*/
(PID.TID 0000.0001)                 5.000000000000000E-01
(PID.TID 0000.0001)     ;
(PID.TID 0000.0001) implicDiv2Dflow =  /* Barot. Flow Div. implicit factor (0-1)*/
(PID.TID 0000.0001)                 5.000000000000000E-01
(PID.TID 0000.0001)     ;
(PID.TID 0000.0001) exactConserv =  /* Exact Volume Conservation on/off flag*/
(PID.TID 0000.0001)                   T
(PID.TID 0000.0001)     ;
(PID.TID 0000.0001) linFSConserveTr = /* Tracer correction for Lin Free Surface on/off flag*/
(PID.TID 0000.0001)                   F
(PID.TID 0000.0001)     ;
(PID.TID 0000.0001) uniformLin_PhiSurf = /* use uniform Bo_surf on/off flag*/
(PID.TID 0000.0001)                   T
(PID.TID 0000.0001)     ;
(PID.TID 0000.0001) hFacMin =   /* minimum partial cell factor (hFac) */
(PID.TID 0000.0001)                 2.000000000000000E-01
(PID.TID 0000.0001)     ;
(PID.TID 0000.0001) hFacMinDr = /* minimum partial cell thickness ( m) */
(PID.TID 0000.0001)                 2.000000000000000E-01
(PID.TID 0000.0001)     ;
(PID.TID 0000.0001) nonlinFreeSurf = /* Non-linear Free Surf. options (-1,0,1,2,3)*/
(PID.TID 0000.0001)                       3
(PID.TID 0000.0001)      -1,0= Off ; 1,2,3= On, 2=+rescale gU,gV, 3=+update cg2d solv.
(PID.TID 0000.0001)     ;
(PID.TID 0000.0001) hFacInf =   /* lower threshold for hFac (nonlinFreeSurf only)*/
(PID.TID 0000.0001)                 2.000000000000000E-01
(PID.TID 0000.0001)     ;
(PID.TID 0000.0001) hFacSup =   /* upper threshold for hFac (nonlinFreeSurf only)*/
(PID.TID 0000.0001)                 1.800000000000000E+00
(PID.TID 0000.0001)     ;
(PID.TID 0000.0001) select_rStar = /* r* Vertical coord. options (=0 r coord.; >0 uses r*)*/
(PID.TID 0000.0001)                       0
(PID.TID 0000.0001)     ;
(PID.TID 0000.0001) selectAddFluid = /* option for mass source/sink of fluid (=0: off) */
(PID.TID 0000.0001)                       0
(PID.TID 0000.0001)     ;
(PID.TID 0000.0001) useRealFreshWaterFlux = /* Real Fresh Water Flux on/off flag*/
(PID.TID 0000.0001)                   F
(PID.TID 0000.0001)     ;
(PID.TID 0000.0001) temp_EvPrRn = /* Temp. of Evap/Prec/R (UNSET=use local T)(oC)*/
(PID.TID 0000.0001)                 1.234567000000000E+05
(PID.TID 0000.0001)     ;
(PID.TID 0000.0001) salt_EvPrRn = /* Salin. of Evap/Prec/R (UNSET=use local S)(psu)*/
(PID.TID 0000.0001)                 0.000000000000000E+00
(PID.TID 0000.0001)     ;
(PID.TID 0000.0001) temp_addMass = /* Temp. of addMass array (UNSET=use local T)(oC)*/
(PID.TID 0000.0001)                 1.234567000000000E+05
(PID.TID 0000.0001)     ;
(PID.TID 0000.0001) salt_addMass = /* Salin. of addMass array (UNSET=use local S)(psu)*/
(PID.TID 0000.0001)                 0.000000000000000E+00
(PID.TID 0000.0001)     ;
(PID.TID 0000.0001) convertFW2Salt = /* convert F.W. Flux to Salt Flux (-1=use local S)(psu)*/
(PID.TID 0000.0001)                 3.500000000000000E+01
(PID.TID 0000.0001)     ;
(PID.TID 0000.0001) use3Dsolver = /* use 3-D pressure solver on/off flag */
(PID.TID 0000.0001)                   F
(PID.TID 0000.0001)     ;
(PID.TID 0000.0001) nonHydrostatic =  /* Non-Hydrostatic on/off flag */
(PID.TID 0000.0001)                   F
(PID.TID 0000.0001)     ;
(PID.TID 0000.0001) nh_Am2 = /* Non-Hydrostatic terms scaling factor */
(PID.TID 0000.0001)                 1.000000000000000E+00
(PID.TID 0000.0001)     ;
(PID.TID 0000.0001) implicitNHPress = /* Non-Hyd Pressure implicit factor (0-1)*/
(PID.TID 0000.0001)                 5.000000000000000E-01
(PID.TID 0000.0001)     ;
(PID.TID 0000.0001) selectNHfreeSurf = /* Non-Hyd (free-)Surface option */
(PID.TID 0000.0001)                       0
(PID.TID 0000.0001)     ;
(PID.TID 0000.0001) quasiHydrostatic = /* Quasi-Hydrostatic on/off flag */
(PID.TID 0000.0001)                   F
(PID.TID 0000.0001)     ;
(PID.TID 0000.0001) momStepping =  /* Momentum equation on/off flag */
(PID.TID 0000.0001)                   T
(PID.TID 0000.0001)     ;
(PID.TID 0000.0001) vectorInvariantMomentum= /* Vector-Invariant Momentum on/off */
(PID.TID 0000.0001)                   F
(PID.TID 0000.0001)     ;
(PID.TID 0000.0001) momAdvection =  /* Momentum advection on/off flag */
(PID.TID 0000.0001)                   T
(PID.TID 0000.0001)     ;
(PID.TID 0000.0001) momViscosity =  /* Momentum viscosity on/off flag */
(PID.TID 0000.0001)                   T
(PID.TID 0000.0001)     ;
(PID.TID 0000.0001) momImplVertAdv= /* Momentum implicit vert. advection on/off*/
(PID.TID 0000.0001)                   F
(PID.TID 0000.0001)     ;
(PID.TID 0000.0001) implicitViscosity = /* Implicit viscosity on/off flag */
(PID.TID 0000.0001)                   F
(PID.TID 0000.0001)     ;
(PID.TID 0000.0001) metricTerms =  /* metric-Terms on/off flag */
(PID.TID 0000.0001)                   F
(PID.TID 0000.0001)     ;
(PID.TID 0000.0001) useNHMTerms = /* Non-Hydrostatic Metric-Terms on/off */
(PID.TID 0000.0001)                   F
(PID.TID 0000.0001)     ;
(PID.TID 0000.0001) selectCoriMap = /* Coriolis Map options (0,1,2,3)*/
(PID.TID 0000.0001)                       1
(PID.TID 0000.0001)     0= f-Plane ; 1= Beta-Plane ; 2= Spherical ; 3= read from file
(PID.TID 0000.0001)     ;
(PID.TID 0000.0001) use3dCoriolis = /* 3-D Coriolis on/off flag */
(PID.TID 0000.0001)                   F
(PID.TID 0000.0001)     ;
(PID.TID 0000.0001) useCoriolis =  /* Coriolis on/off flag */
(PID.TID 0000.0001)                   T
(PID.TID 0000.0001)     ;
(PID.TID 0000.0001) useCDscheme =  /* CD scheme on/off flag */
(PID.TID 0000.0001)                   F
(PID.TID 0000.0001)     ;
(PID.TID 0000.0001) useEnergyConservingCoriolis= /* Flx-Form Coriolis scheme flag */
(PID.TID 0000.0001)                   F
(PID.TID 0000.0001)     ;
(PID.TID 0000.0001) useJamartWetPoints= /* Coriolis WetPoints method flag */
(PID.TID 0000.0001)                   F
(PID.TID 0000.0001)     ;
(PID.TID 0000.0001) useJamartMomAdv= /* V.I Non-linear terms Jamart flag */
(PID.TID 0000.0001)                   F
(PID.TID 0000.0001)     ;
(PID.TID 0000.0001) useAbsVorticity= /* V.I Works with f+zeta in Coriolis */
(PID.TID 0000.0001)                   F
(PID.TID 0000.0001)     ;
(PID.TID 0000.0001) selectVortScheme= /* V.I Scheme selector for Vorticity-Term */
(PID.TID 0000.0001)               123456789
(PID.TID 0000.0001)    = 0 : enstrophy (Shallow-Water Eq.) conserving scheme by Sadourny, JAS 75
(PID.TID 0000.0001)    = 1 : same as 0 with modified hFac
(PID.TID 0000.0001)    = 2 : energy conserving scheme (used by Sadourny in JAS 75 paper)
(PID.TID 0000.0001)    = 3 : energy (general) and enstrophy (2D, nonDiv.) conserving scheme
(PID.TID 0000.0001)          from Sadourny (Burridge & Haseler, ECMWF Rep.4, 1977)
(PID.TID 0000.0001)     ;
(PID.TID 0000.0001) upwindVorticity= /* V.I Upwind bias vorticity flag */
(PID.TID 0000.0001)                   F
(PID.TID 0000.0001)     ;
(PID.TID 0000.0001) highOrderVorticity= /* V.I High order vort. advect. flag */
(PID.TID 0000.0001)                   F
(PID.TID 0000.0001)     ;
(PID.TID 0000.0001) upwindShear= /* V.I Upwind vertical Shear advection flag */
(PID.TID 0000.0001)                   F
(PID.TID 0000.0001)     ;
(PID.TID 0000.0001) selectKEscheme= /* V.I Kinetic Energy scheme selector */
(PID.TID 0000.0001)                       0
(PID.TID 0000.0001)     ;
(PID.TID 0000.0001) momForcing =  /* Momentum forcing on/off flag */
(PID.TID 0000.0001)                   T
(PID.TID 0000.0001)     ;
(PID.TID 0000.0001) momPressureForcing =  /* Momentum pressure term on/off flag */
(PID.TID 0000.0001)                   T
(PID.TID 0000.0001)     ;
(PID.TID 0000.0001) implicitIntGravWave= /* Implicit Internal Gravity Wave flag */
(PID.TID 0000.0001)                   F
(PID.TID 0000.0001)     ;
(PID.TID 0000.0001) staggerTimeStep =   /* Stagger time stepping on/off flag */
(PID.TID 0000.0001)                   F
(PID.TID 0000.0001)     ;
(PID.TID 0000.0001) multiDimAdvection =   /* enable/disable Multi-Dim Advection */
(PID.TID 0000.0001)                   T
(PID.TID 0000.0001)     ;
(PID.TID 0000.0001) useMultiDimAdvec =   /* Multi-Dim Advection is/is-not used */
(PID.TID 0000.0001)                   F
(PID.TID 0000.0001)     ;
(PID.TID 0000.0001) implicitDiffusion = /* Implicit Diffusion on/off flag */
(PID.TID 0000.0001)                   F
(PID.TID 0000.0001)     ;
(PID.TID 0000.0001) tempStepping =  /* Temperature equation on/off flag */
(PID.TID 0000.0001)                   T
(PID.TID 0000.0001)     ;
(PID.TID 0000.0001) tempAdvection=  /* Temperature advection on/off flag */
(PID.TID 0000.0001)                   T
(PID.TID 0000.0001)     ;
(PID.TID 0000.0001) tempImplVertAdv = /* Temp. implicit vert. advection on/off */
(PID.TID 0000.0001)                   F
(PID.TID 0000.0001)     ;
(PID.TID 0000.0001) tempForcing  =  /* Temperature forcing on/off flag */
(PID.TID 0000.0001)                   T
(PID.TID 0000.0001)     ;
(PID.TID 0000.0001) tempIsActiveTr = /* Temp. is a dynamically Active Tracer */
(PID.TID 0000.0001)                   T
(PID.TID 0000.0001)     ;
(PID.TID 0000.0001) saltStepping =  /* Salinity equation on/off flag */
(PID.TID 0000.0001)                   F
(PID.TID 0000.0001)     ;
(PID.TID 0000.0001) saltAdvection=  /* Salinity advection on/off flag */
(PID.TID 0000.0001)                   F
(PID.TID 0000.0001)     ;
(PID.TID 0000.0001) saltImplVertAdv = /* Sali. implicit vert. advection on/off */
(PID.TID 0000.0001)                   F
(PID.TID 0000.0001)     ;
(PID.TID 0000.0001) saltForcing  =  /* Salinity forcing on/off flag */
(PID.TID 0000.0001)                   F
(PID.TID 0000.0001)     ;
(PID.TID 0000.0001) saltIsActiveTr = /* Salt  is a dynamically Active Tracer */
(PID.TID 0000.0001)                   F
(PID.TID 0000.0001)     ;
(PID.TID 0000.0001)  readBinaryPrec = /* Precision used for reading binary files */
(PID.TID 0000.0001)                      64
(PID.TID 0000.0001)     ;
(PID.TID 0000.0001) writeBinaryPrec = /* Precision used for writing binary files */
(PID.TID 0000.0001)                      64
(PID.TID 0000.0001)     ;
(PID.TID 0000.0001)  globalFiles = /* write "global" (=not per tile) files */
(PID.TID 0000.0001)                   F
(PID.TID 0000.0001)     ;
(PID.TID 0000.0001)  useSingleCpuIO = /* only master MPI process does I/O */
(PID.TID 0000.0001)                   F
(PID.TID 0000.0001)     ;
(PID.TID 0000.0001) /* debLev[*]  : level of debug & auxiliary message printing */
(PID.TID 0000.0001) debLevZero =  0 ; /* level of disabled aux. msg printing */
(PID.TID 0000.0001)    debLevA =  1 ; /* level of minimum  aux. msg printing */
(PID.TID 0000.0001)    debLevB =  2 ; /* level of low aux. print (report read-file opening)*/
(PID.TID 0000.0001)    debLevC =  3 ; /* level of moderate debug prt (most pkgs debug msg) */
(PID.TID 0000.0001)    debLevD =  4 ; /* level of enhanced debug prt (add DEBUG_STATS prt) */
(PID.TID 0000.0001)    debLevE =  5 ; /* level of extensive debug printing */
(PID.TID 0000.0001) debugLevel =  /* select debug printing level */
(PID.TID 0000.0001)                       2
(PID.TID 0000.0001)     ;
(PID.TID 0000.0001) //
(PID.TID 0000.0001) // Elliptic solver(s) paramters ( PARM02 in namelist )
(PID.TID 0000.0001) //
(PID.TID 0000.0001) cg2dMaxIters =   /* Upper limit on 2d con. grad iterations  */
(PID.TID 0000.0001)                    1000
(PID.TID 0000.0001)     ;
(PID.TID 0000.0001) cg2dChkResFreq =   /* 2d con. grad convergence test frequency */
(PID.TID 0000.0001)                       1
(PID.TID 0000.0001)     ;
(PID.TID 0000.0001) cg2dTargetResidual =   /* 2d con. grad target residual  */
(PID.TID 0000.0001)                 1.000000000000000E-13
(PID.TID 0000.0001)     ;
(PID.TID 0000.0001) cg2dTargetResWunit =   /* CG2d target residual [W units] */
(PID.TID 0000.0001)                -1.000000000000000E+00
(PID.TID 0000.0001)     ;
(PID.TID 0000.0001) cg2dPreCondFreq =   /* Freq. for updating cg2d preconditioner */
(PID.TID 0000.0001)                       1
(PID.TID 0000.0001)     ;
(PID.TID 0000.0001) useSRCGSolver =  /* use single reduction CG solver(s) */
(PID.TID 0000.0001)                   F
(PID.TID 0000.0001)     ;
(PID.TID 0000.0001) printResidualFreq = /* Freq. for printing CG residual */
(PID.TID 0000.0001)                       0
(PID.TID 0000.0001)     ;
(PID.TID 0000.0001) //
(PID.TID 0000.0001) // Time stepping paramters ( PARM03 in namelist )
(PID.TID 0000.0001) //
(PID.TID 0000.0001) deltaTmom =   /* Momentum equation timestep ( s ) */
(PID.TID 0000.0001)                 5.000000000000000E+02
(PID.TID 0000.0001)     ;
(PID.TID 0000.0001) deltaTfreesurf = /* FreeSurface equation timestep ( s ) */
(PID.TID 0000.0001)                 5.000000000000000E+02
(PID.TID 0000.0001)     ;
(PID.TID 0000.0001) dTtracerLev =  /* Tracer equation timestep ( s ) */
(PID.TID 0000.0001)    20 @  5.000000000000000E+02              /* K =  1: 20 */
(PID.TID 0000.0001)     ;
(PID.TID 0000.0001) deltaTClock  =   /* Model clock timestep ( s ) */
(PID.TID 0000.0001)                 5.000000000000000E+02
(PID.TID 0000.0001)     ;
(PID.TID 0000.0001) cAdjFreq =   /* Convective adjustment interval ( s ) */
(PID.TID 0000.0001)                 0.000000000000000E+00
(PID.TID 0000.0001)     ;
(PID.TID 0000.0001) momForcingOutAB = /* =1: take Momentum Forcing out of Adams-Bash. stepping */
(PID.TID 0000.0001)                       0
(PID.TID 0000.0001)     ;
(PID.TID 0000.0001) tracForcingOutAB = /* =1: take T,S,pTr Forcing out of Adams-Bash. stepping */
(PID.TID 0000.0001)                       0
(PID.TID 0000.0001)     ;
(PID.TID 0000.0001) momDissip_In_AB = /* put Dissipation Tendency in Adams-Bash. stepping */
(PID.TID 0000.0001)                   T
(PID.TID 0000.0001)     ;
(PID.TID 0000.0001) doAB_onGtGs = /* apply AB on Tendencies (rather than on T,S)*/
(PID.TID 0000.0001)                   T
(PID.TID 0000.0001)     ;
(PID.TID 0000.0001) abEps =   /* Adams-Bashforth-2 stabilizing weight */
(PID.TID 0000.0001)                 1.000000000000000E-01
(PID.TID 0000.0001)     ;
(PID.TID 0000.0001) pickupStrictlyMatch= /* stop if pickup do not strictly match */
(PID.TID 0000.0001)                   T
(PID.TID 0000.0001)     ;
(PID.TID 0000.0001) nIter0   =   /* Run starting timestep number */
(PID.TID 0000.0001)                       0
(PID.TID 0000.0001)     ;
(PID.TID 0000.0001) nTimeSteps = /* Number of timesteps */
(PID.TID 0000.0001)                     100
(PID.TID 0000.0001)     ;
(PID.TID 0000.0001) nEndIter =   /* Run ending timestep number */
(PID.TID 0000.0001)                     100
(PID.TID 0000.0001)     ;
(PID.TID 0000.0001) baseTime =   /* Model base time ( s ) */
(PID.TID 0000.0001)                 0.000000000000000E+00
(PID.TID 0000.0001)     ;
(PID.TID 0000.0001) startTime =  /* Run start time ( s ) */
(PID.TID 0000.0001)                 0.000000000000000E+00
(PID.TID 0000.0001)     ;
(PID.TID 0000.0001) endTime  =   /* Integration ending time ( s ) */
(PID.TID 0000.0001)                 5.000000000000000E+04
(PID.TID 0000.0001)     ;
(PID.TID 0000.0001) pChkPtFreq = /* Permanent restart/pickup file interval ( s ) */
(PID.TID 0000.0001)                 0.000000000000000E+00
(PID.TID 0000.0001)     ;
(PID.TID 0000.0001) chkPtFreq  = /* Rolling restart/pickup file interval ( s ) */
(PID.TID 0000.0001)                 0.000000000000000E+00
(PID.TID 0000.0001)     ;
(PID.TID 0000.0001) pickup_write_mdsio =   /* Model IO flag. */
(PID.TID 0000.0001)                   T
(PID.TID 0000.0001)     ;
(PID.TID 0000.0001) pickup_read_mdsio =   /* Model IO flag. */
(PID.TID 0000.0001)                   T
(PID.TID 0000.0001)     ;
(PID.TID 0000.0001) pickup_write_mnc =   /* Model IO flag. */
(PID.TID 0000.0001)                   F
(PID.TID 0000.0001)     ;
(PID.TID 0000.0001) pickup_read_mnc =   /* Model IO flag. */
(PID.TID 0000.0001)                   F
(PID.TID 0000.0001)     ;
(PID.TID 0000.0001) pickup_write_immed =   /* Model IO flag. */
(PID.TID 0000.0001)                   F
(PID.TID 0000.0001)     ;
(PID.TID 0000.0001) writePickupAtEnd =   /* Model IO flag. */
(PID.TID 0000.0001)                   T
(PID.TID 0000.0001)     ;
(PID.TID 0000.0001) dumpFreq =   /* Model state write out interval ( s ). */
(PID.TID 0000.0001)                 5.000000000000000E+04
(PID.TID 0000.0001)     ;
(PID.TID 0000.0001) dumpInitAndLast= /* write out Initial & Last iter. model state */
(PID.TID 0000.0001)                   T
(PID.TID 0000.0001)     ;
(PID.TID 0000.0001) snapshot_mdsio =   /* Model IO flag. */
(PID.TID 0000.0001)                   F
(PID.TID 0000.0001)     ;
(PID.TID 0000.0001) snapshot_mnc =   /* Model IO flag. */
(PID.TID 0000.0001)                   T
(PID.TID 0000.0001)     ;
(PID.TID 0000.0001) monitorFreq =   /* Monitor output interval ( s ). */
(PID.TID 0000.0001)                 2.500000000000000E+03
(PID.TID 0000.0001)     ;
(PID.TID 0000.0001) monitorSelect = /* select group of variables to monitor */
(PID.TID 0000.0001)                       2
(PID.TID 0000.0001)     ;
(PID.TID 0000.0001) monitor_stdio =   /* Model IO flag. */
(PID.TID 0000.0001)                   T
(PID.TID 0000.0001)     ;
(PID.TID 0000.0001) monitor_mnc =   /* Model IO flag. */
(PID.TID 0000.0001)                   F
(PID.TID 0000.0001)     ;
(PID.TID 0000.0001) externForcingPeriod =   /* forcing period (s) */
(PID.TID 0000.0001)                 0.000000000000000E+00
(PID.TID 0000.0001)     ;
(PID.TID 0000.0001) externForcingCycle =   /* period of the cyle (s). */
(PID.TID 0000.0001)                 0.000000000000000E+00
(PID.TID 0000.0001)     ;
(PID.TID 0000.0001) tauThetaClimRelax =   /* relaxation time scale (s) */
(PID.TID 0000.0001)                 0.000000000000000E+00
(PID.TID 0000.0001)     ;
(PID.TID 0000.0001) tauSaltClimRelax =   /* relaxation time scale (s) */
(PID.TID 0000.0001)                 0.000000000000000E+00
(PID.TID 0000.0001)     ;
(PID.TID 0000.0001) latBandClimRelax =   /* max. Lat. where relaxation */
(PID.TID 0000.0001)                 1.500000000000000E+04
(PID.TID 0000.0001)     ;
(PID.TID 0000.0001) //
(PID.TID 0000.0001) // Gridding paramters ( PARM04 in namelist )
(PID.TID 0000.0001) //
(PID.TID 0000.0001) usingCartesianGrid = /* Cartesian coordinates flag ( True/False ) */
(PID.TID 0000.0001)                   T
(PID.TID 0000.0001)     ;
(PID.TID 0000.0001) usingCylindricalGrid = /* Cylindrical coordinates flag ( True/False ) */
(PID.TID 0000.0001)                   F
(PID.TID 0000.0001)     ;
(PID.TID 0000.0001) usingSphericalPolarGrid = /* Spherical coordinates flag ( True/False ) */
(PID.TID 0000.0001)                   F
(PID.TID 0000.0001)     ;
(PID.TID 0000.0001) usingCurvilinearGrid = /* Curvilinear coordinates flag ( True/False ) */
(PID.TID 0000.0001)                   F
(PID.TID 0000.0001)     ;
(PID.TID 0000.0001) selectSigmaCoord = /* Hybrid-Sigma Vert. Coordinate option */
(PID.TID 0000.0001)                       0
(PID.TID 0000.0001)     ;
(PID.TID 0000.0001) Ro_SeaLevel = /* r(1) ( units of r ==  m ) */
(PID.TID 0000.0001)                 0.000000000000000E+00
(PID.TID 0000.0001)     ;
(PID.TID 0000.0001) rSigmaBnd = /* r/sigma transition ( units of r ==  m ) */
(PID.TID 0000.0001)                 1.234567000000000E+05
(PID.TID 0000.0001)     ;
(PID.TID 0000.0001) rkSign =   /* index orientation relative to vertical coordinate */
(PID.TID 0000.0001)                -1.000000000000000E+00
(PID.TID 0000.0001)     ;
(PID.TID 0000.0001) gravitySign = /* gravity orientation relative to vertical coordinate */
(PID.TID 0000.0001)                -1.000000000000000E+00
(PID.TID 0000.0001)     ;
(PID.TID 0000.0001) mass2rUnit = /* convert mass per unit area [kg/m2] to r-units [m] */
(PID.TID 0000.0001)                 1.000200040008002E-03
(PID.TID 0000.0001)     ;
(PID.TID 0000.0001) rUnit2mass = /* convert r-units [m] to mass per unit area [kg/m2] */
(PID.TID 0000.0001)                 9.998000000000000E+02
(PID.TID 0000.0001)     ;
(PID.TID 0000.0001) drC =   /* C spacing ( units of r ) */
(PID.TID 0000.0001)                 5.000000000000000E+00,      /* K =  1 */
(PID.TID 0000.0001)    19 @  1.000000000000000E+01              /* K =  2: 20 */
(PID.TID 0000.0001)     ;
(PID.TID 0000.0001) drF =   /* W spacing ( units of r ) */
(PID.TID 0000.0001)    20 @  1.000000000000000E+01              /* K =  1: 20 */
(PID.TID 0000.0001)     ;
(PID.TID 0000.0001) delX = /* U spacing ( m - cartesian, degrees - spherical ) */
(PID.TID 0000.0001)    60 @  2.180327868852459E+02              /* I =  1: 60 */
(PID.TID 0000.0001)     ;
(PID.TID 0000.0001) delY = /* V spacing ( m - cartesian, degrees - spherical ) */
(PID.TID 0000.0001)                 5.000000000000000E+03       /* J =  1 */
(PID.TID 0000.0001)     ;
(PID.TID 0000.0001) xgOrigin = /* X-axis origin of West  edge (cartesian: m, lat-lon: deg.) */
(PID.TID 0000.0001)                 0.000000000000000E+00
(PID.TID 0000.0001)     ;
(PID.TID 0000.0001) ygOrigin = /* Y-axis origin of South edge (cartesian: m, lat-lon: deg.) */
(PID.TID 0000.0001)                 0.000000000000000E+00
(PID.TID 0000.0001)     ;
(PID.TID 0000.0001) rSphere =  /* Radius ( ignored - cartesian, m - spherical ) */
(PID.TID 0000.0001)                 6.370000000000000E+06
(PID.TID 0000.0001)     ;
(PID.TID 0000.0001) deepAtmosphere = /* Deep/Shallow Atmosphere flag (True/False) */
(PID.TID 0000.0001)                   F
(PID.TID 0000.0001)     ;
(PID.TID 0000.0001) xC =  /* xC(:,1,:,1) : P-point X coord ( deg. or m if cartesian) */
(PID.TID 0000.0001)                 1.090163934426230E+02,      /* I =  1 */
(PID.TID 0000.0001)                 3.270491803278688E+02,      /* I =  2 */
(PID.TID 0000.0001)                 5.450819672131147E+02,      /* I =  3 */
(PID.TID 0000.0001)                 7.631147540983607E+02,      /* I =  4 */
(PID.TID 0000.0001)                 9.811475409836066E+02,      /* I =  5 */
(PID.TID 0000.0001)                 1.199180327868853E+03,      /* I =  6 */
(PID.TID 0000.0001)                 1.417213114754099E+03,      /* I =  7 */
(PID.TID 0000.0001)                 1.635245901639345E+03,      /* I =  8 */
(PID.TID 0000.0001)                 1.853278688524591E+03,      /* I =  9 */
(PID.TID 0000.0001)                 2.071311475409836E+03,      /* I = 10 */
(PID.TID 0000.0001)                 2.289344262295082E+03,      /* I = 11 */
(PID.TID 0000.0001)                 2.507377049180328E+03,      /* I = 12 */
(PID.TID 0000.0001)                 2.725409836065574E+03,      /* I = 13 */
(PID.TID 0000.0001)                 2.943442622950820E+03,      /* I = 14 */
(PID.TID 0000.0001)                 3.161475409836066E+03,      /* I = 15 */
(PID.TID 0000.0001)                 3.379508196721312E+03,      /* I = 16 */
(PID.TID 0000.0001)                 3.597540983606558E+03,      /* I = 17 */
(PID.TID 0000.0001)                 3.815573770491804E+03,      /* I = 18 */
(PID.TID 0000.0001)                 4.033606557377050E+03,      /* I = 19 */
(PID.TID 0000.0001)                 4.251639344262296E+03,      /* I = 20 */
(PID.TID 0000.0001)                 4.469672131147541E+03,      /* I = 21 */
(PID.TID 0000.0001)                 4.687704918032787E+03,      /* I = 22 */
(PID.TID 0000.0001)                 4.905737704918032E+03,      /* I = 23 */
(PID.TID 0000.0001)                 5.123770491803278E+03,      /* I = 24 */
(PID.TID 0000.0001)                 5.341803278688523E+03,      /* I = 25 */
(PID.TID 0000.0001)                 5.559836065573769E+03,      /* I = 26 */
(PID.TID 0000.0001)                 5.777868852459014E+03,      /* I = 27 */
(PID.TID 0000.0001)                 5.995901639344260E+03,      /* I = 28 */
(PID.TID 0000.0001)                 6.213934426229505E+03,      /* I = 29 */
(PID.TID 0000.0001)                 6.431967213114751E+03,      /* I = 30 */
(PID.TID 0000.0001)                 6.649999999999996E+03,      /* I = 31 */
(PID.TID 0000.0001)                 6.868032786885242E+03,      /* I = 32 */
(PID.TID 0000.0001)                 7.086065573770487E+03,      /* I = 33 */
(PID.TID 0000.0001)                 7.304098360655733E+03,      /* I = 34 */
(PID.TID 0000.0001)                 7.522131147540978E+03,      /* I = 35 */
(PID.TID 0000.0001)                 7.740163934426224E+03,      /* I = 36 */
(PID.TID 0000.0001)                 7.958196721311469E+03,      /* I = 37 */
(PID.TID 0000.0001)                 8.176229508196715E+03,      /* I = 38 */
(PID.TID 0000.0001)                 8.394262295081960E+03,      /* I = 39 */
(PID.TID 0000.0001)                 8.612295081967208E+03,      /* I = 40 */
(PID.TID 0000.0001)                 8.830327868852452E+03,      /* I = 41 */
(PID.TID 0000.0001)                 9.048360655737699E+03,      /* I = 42 */
(PID.TID 0000.0001)                 9.266393442622943E+03,      /* I = 43 */
(PID.TID 0000.0001)                 9.484426229508190E+03,      /* I = 44 */
(PID.TID 0000.0001)                 9.702459016393434E+03,      /* I = 45 */
(PID.TID 0000.0001)                 9.920491803278681E+03,      /* I = 46 */
(PID.TID 0000.0001)                 1.013852459016392E+04,      /* I = 47 */
(PID.TID 0000.0001)                 1.035655737704917E+04,      /* I = 48 */
(PID.TID 0000.0001)                 1.057459016393442E+04,      /* I = 49 */
(PID.TID 0000.0001)                 1.079262295081966E+04,      /* I = 50 */
(PID.TID 0000.0001)                 1.101065573770491E+04,      /* I = 51 */
(PID.TID 0000.0001)                 1.122868852459015E+04,      /* I = 52 */
(PID.TID 0000.0001)                 1.144672131147540E+04,      /* I = 53 */
(PID.TID 0000.0001)                 1.166475409836065E+04,      /* I = 54 */
(PID.TID 0000.0001)                 1.188278688524589E+04,      /* I = 55 */
(PID.TID 0000.0001)                 1.210081967213113E+04,      /* I = 56 */
(PID.TID 0000.0001)                 1.231885245901638E+04,      /* I = 57 */
(PID.TID 0000.0001)                 1.253688524590163E+04,      /* I = 58 */
(PID.TID 0000.0001)                 1.275491803278687E+04,      /* I = 59 */
(PID.TID 0000.0001)                 1.297295081967212E+04       /* I = 60 */
(PID.TID 0000.0001)     ;
(PID.TID 0000.0001) yC =  /* yC(1,:,1,:) : P-point Y coord ( deg. or m if cartesian) */
(PID.TID 0000.0001)                 2.500000000000000E+03       /* J =  1 */
(PID.TID 0000.0001)     ;
(PID.TID 0000.0001) rcoord = /* P-point R coordinate (  units of r ) */
(PID.TID 0000.0001)                -5.000000000000000E+00,      /* K =  1 */
(PID.TID 0000.0001)                -1.500000000000000E+01,      /* K =  2 */
(PID.TID 0000.0001)                -2.500000000000000E+01,      /* K =  3 */
(PID.TID 0000.0001)                -3.500000000000000E+01,      /* K =  4 */
(PID.TID 0000.0001)                -4.500000000000000E+01,      /* K =  5 */
(PID.TID 0000.0001)                -5.500000000000000E+01,      /* K =  6 */
(PID.TID 0000.0001)                -6.500000000000000E+01,      /* K =  7 */
(PID.TID 0000.0001)                -7.500000000000000E+01,      /* K =  8 */
(PID.TID 0000.0001)                -8.500000000000000E+01,      /* K =  9 */
(PID.TID 0000.0001)                -9.500000000000000E+01,      /* K = 10 */
(PID.TID 0000.0001)                -1.050000000000000E+02,      /* K = 11 */
(PID.TID 0000.0001)                -1.150000000000000E+02,      /* K = 12 */
(PID.TID 0000.0001)                -1.250000000000000E+02,      /* K = 13 */
(PID.TID 0000.0001)                -1.350000000000000E+02,      /* K = 14 */
(PID.TID 0000.0001)                -1.450000000000000E+02,      /* K = 15 */
(PID.TID 0000.0001)                -1.550000000000000E+02,      /* K = 16 */
(PID.TID 0000.0001)                -1.650000000000000E+02,      /* K = 17 */
(PID.TID 0000.0001)                -1.750000000000000E+02,      /* K = 18 */
(PID.TID 0000.0001)                -1.850000000000000E+02,      /* K = 19 */
(PID.TID 0000.0001)                -1.950000000000000E+02       /* K = 20 */
(PID.TID 0000.0001)     ;
(PID.TID 0000.0001) rF =   /* W-Interf. R coordinate (  units of r ) */
(PID.TID 0000.0001)                 0.000000000000000E+00,      /* K =  1 */
(PID.TID 0000.0001)                -1.000000000000000E+01,      /* K =  2 */
(PID.TID 0000.0001)                -2.000000000000000E+01,      /* K =  3 */
(PID.TID 0000.0001)                -3.000000000000000E+01,      /* K =  4 */
(PID.TID 0000.0001)                -4.000000000000000E+01,      /* K =  5 */
(PID.TID 0000.0001)                -5.000000000000000E+01,      /* K =  6 */
(PID.TID 0000.0001)                -6.000000000000000E+01,      /* K =  7 */
(PID.TID 0000.0001)                -7.000000000000000E+01,      /* K =  8 */
(PID.TID 0000.0001)                -8.000000000000000E+01,      /* K =  9 */
(PID.TID 0000.0001)                -9.000000000000000E+01,      /* K = 10 */
(PID.TID 0000.0001)                -1.000000000000000E+02,      /* K = 11 */
(PID.TID 0000.0001)                -1.100000000000000E+02,      /* K = 12 */
(PID.TID 0000.0001)                -1.200000000000000E+02,      /* K = 13 */
(PID.TID 0000.0001)                -1.300000000000000E+02,      /* K = 14 */
(PID.TID 0000.0001)                -1.400000000000000E+02,      /* K = 15 */
(PID.TID 0000.0001)                -1.500000000000000E+02,      /* K = 16 */
(PID.TID 0000.0001)                -1.600000000000000E+02,      /* K = 17 */
(PID.TID 0000.0001)                -1.700000000000000E+02,      /* K = 18 */
(PID.TID 0000.0001)                -1.800000000000000E+02,      /* K = 19 */
(PID.TID 0000.0001)                -1.900000000000000E+02,      /* K = 20 */
(PID.TID 0000.0001)                -2.000000000000000E+02       /* K = 21 */
(PID.TID 0000.0001)     ;
(PID.TID 0000.0001) deepFacC = /* deep-model grid factor @ cell-Center (-) */
(PID.TID 0000.0001)    20 @  1.000000000000000E+00              /* K =  1: 20 */
(PID.TID 0000.0001)     ;
(PID.TID 0000.0001) deepFacF = /* deep-model grid factor @ W-Interface (-) */
(PID.TID 0000.0001)    21 @  1.000000000000000E+00              /* K =  1: 21 */
(PID.TID 0000.0001)     ;
(PID.TID 0000.0001) rVel2wUnit = /* convert units: rVel -> wSpeed (=1 if z-coord)*/
(PID.TID 0000.0001)    21 @  1.000000000000000E+00              /* K =  1: 21 */
(PID.TID 0000.0001)     ;
(PID.TID 0000.0001) wUnit2rVel = /* convert units: wSpeed -> rVel (=1 if z-coord)*/
(PID.TID 0000.0001)    21 @  1.000000000000000E+00              /* K =  1: 21 */
(PID.TID 0000.0001)     ;
(PID.TID 0000.0001) dBdrRef = /* Vertical grad. of reference buoyancy [(m/s/r)^2] */
(PID.TID 0000.0001)                 0.000000000000000E+00,      /* K =  1 */
(PID.TID 0000.0001)                 1.000011779999999E-06,      /* K =  2 */
(PID.TID 0000.0001)                 9.999921600000012E-07,      /* K =  3 */
(PID.TID 0000.0001)                 9.999921599999997E-07,      /* K =  4 */
(PID.TID 0000.0001)                 1.000011780000000E-06,      /* K =  5 */
(PID.TID 0000.0001)                 9.999921600000005E-07,      /* K =  6 */
(PID.TID 0000.0001)                 1.000011780000000E-06,      /* K =  7 */
(PID.TID 0000.0001)                 9.999921600000005E-07,      /* K =  8 */
(PID.TID 0000.0001)     5 @  1.000000008000000E-06,             /* K =  9: 13 */
(PID.TID 0000.0001)                 9.999921600000005E-07,      /* K = 14 */
(PID.TID 0000.0001)                 1.000011780000000E-06,      /* K = 15 */
(PID.TID 0000.0001)                 9.999921600000005E-07,      /* K = 16 */
(PID.TID 0000.0001)                 1.000011780000000E-06,      /* K = 17 */
(PID.TID 0000.0001)                 9.999921599999997E-07,      /* K = 18 */
(PID.TID 0000.0001)                 9.999921600000012E-07,      /* K = 19 */
(PID.TID 0000.0001)                 1.000011779999999E-06       /* K = 20 */
(PID.TID 0000.0001)     ;
(PID.TID 0000.0001) rotateGrid = /* use rotated grid ( True/False ) */
(PID.TID 0000.0001)                   F
(PID.TID 0000.0001)     ;
(PID.TID 0000.0001) phiEuler = /* Euler angle, rotation about original z-coordinate [rad] */
(PID.TID 0000.0001)                 0.000000000000000E+00
(PID.TID 0000.0001)     ;
(PID.TID 0000.0001) thetaEuler = /* Euler angle, rotation about new x-coordinate [rad] */
(PID.TID 0000.0001)                 0.000000000000000E+00
(PID.TID 0000.0001)     ;
(PID.TID 0000.0001) psiEuler = /* Euler angle, rotation about new z-coordinate [rad] */
(PID.TID 0000.0001)                 0.000000000000000E+00
(PID.TID 0000.0001)     ;
(PID.TID 0000.0001) dxF =  /* dxF(:,1,:,1) ( units: m ) */
(PID.TID 0000.0001)    60 @  2.180327868852459E+02              /* I =  1: 60 */
(PID.TID 0000.0001)     ;
(PID.TID 0000.0001) dxF =  /* dxF(1,:,1,:) ( units: m ) */
(PID.TID 0000.0001)                 2.180327868852459E+02       /* J =  1 */
(PID.TID 0000.0001)     ;
(PID.TID 0000.0001) dyF =  /* dyF(:,1,:,1) ( units: m ) */
(PID.TID 0000.0001)    60 @  5.000000000000000E+03              /* I =  1: 60 */
(PID.TID 0000.0001)     ;
(PID.TID 0000.0001) dyF =  /* dyF(1,:,1,:) ( units: m ) */
(PID.TID 0000.0001)                 5.000000000000000E+03       /* J =  1 */
(PID.TID 0000.0001)     ;
(PID.TID 0000.0001) dxG =  /* dxG(:,1,:,1) ( units: m ) */
(PID.TID 0000.0001)    60 @  2.180327868852459E+02              /* I =  1: 60 */
(PID.TID 0000.0001)     ;
(PID.TID 0000.0001) dxG =  /* dxG(1,:,1,:) ( units: m ) */
(PID.TID 0000.0001)                 2.180327868852459E+02       /* J =  1 */
(PID.TID 0000.0001)     ;
(PID.TID 0000.0001) dyG =  /* dyG(:,1,:,1) ( units: m ) */
(PID.TID 0000.0001)    60 @  5.000000000000000E+03              /* I =  1: 60 */
(PID.TID 0000.0001)     ;
(PID.TID 0000.0001) dyG =  /* dyG(1,:,1,:) ( units: m ) */
(PID.TID 0000.0001)                 5.000000000000000E+03       /* J =  1 */
(PID.TID 0000.0001)     ;
(PID.TID 0000.0001) dxC =  /* dxC(:,1,:,1) ( units: m ) */
(PID.TID 0000.0001)    60 @  2.180327868852459E+02              /* I =  1: 60 */
(PID.TID 0000.0001)     ;
(PID.TID 0000.0001) dxC =  /* dxC(1,:,1,:) ( units: m ) */
(PID.TID 0000.0001)                 2.180327868852459E+02       /* J =  1 */
(PID.TID 0000.0001)     ;
(PID.TID 0000.0001) dyC =  /* dyC(:,1,:,1) ( units: m ) */
(PID.TID 0000.0001)    60 @  5.000000000000000E+03              /* I =  1: 60 */
(PID.TID 0000.0001)     ;
(PID.TID 0000.0001) dyC =  /* dyC(1,:,1,:) ( units: m ) */
(PID.TID 0000.0001)                 5.000000000000000E+03       /* J =  1 */
(PID.TID 0000.0001)     ;
(PID.TID 0000.0001) dxV =  /* dxV(:,1,:,1) ( units: m ) */
(PID.TID 0000.0001)    60 @  2.180327868852459E+02              /* I =  1: 60 */
(PID.TID 0000.0001)     ;
(PID.TID 0000.0001) dxV =  /* dxV(1,:,1,:) ( units: m ) */
(PID.TID 0000.0001)                 2.180327868852459E+02       /* J =  1 */
(PID.TID 0000.0001)     ;
(PID.TID 0000.0001) dyU =  /* dyU(:,1,:,1) ( units: m ) */
(PID.TID 0000.0001)    60 @  5.000000000000000E+03              /* I =  1: 60 */
(PID.TID 0000.0001)     ;
(PID.TID 0000.0001) dyU =  /* dyU(1,:,1,:) ( units: m ) */
(PID.TID 0000.0001)                 5.000000000000000E+03       /* J =  1 */
(PID.TID 0000.0001)     ;
(PID.TID 0000.0001) rA  =  /* rA (:,1,:,1) ( units: m^2 ) */
(PID.TID 0000.0001)    60 @  1.090163934426229E+06              /* I =  1: 60 */
(PID.TID 0000.0001)     ;
(PID.TID 0000.0001) rA  =  /* rA (1,:,1,:) ( units: m^2 ) */
(PID.TID 0000.0001)                 1.090163934426229E+06       /* J =  1 */
(PID.TID 0000.0001)     ;
(PID.TID 0000.0001) rAw =  /* rAw(:,1,:,1) ( units: m^2 ) */
(PID.TID 0000.0001)    60 @  1.090163934426229E+06              /* I =  1: 60 */
(PID.TID 0000.0001)     ;
(PID.TID 0000.0001) rAw =  /* rAw(1,:,1,:) ( units: m^2 ) */
(PID.TID 0000.0001)                 1.090163934426229E+06       /* J =  1 */
(PID.TID 0000.0001)     ;
(PID.TID 0000.0001) rAs =  /* rAs(:,1,:,1) ( units: m^2 ) */
(PID.TID 0000.0001)    60 @  1.090163934426229E+06              /* I =  1: 60 */
(PID.TID 0000.0001)     ;
(PID.TID 0000.0001) rAs =  /* rAs(1,:,1,:) ( units: m^2 ) */
(PID.TID 0000.0001)                 1.090163934426229E+06       /* J =  1 */
(PID.TID 0000.0001)     ;
(PID.TID 0000.0001) globalArea = /* Integrated horizontal Area (m^2) */
(PID.TID 0000.0001)                 6.322950819672131E+07
(PID.TID 0000.0001)     ;
(PID.TID 0000.0001) // =======================================================
(PID.TID 0000.0001) // End of Model config. summary
(PID.TID 0000.0001) // =======================================================
(PID.TID 0000.0001) 
(PID.TID 0000.0001) == Packages configuration : Check & print summary ==
(PID.TID 0000.0001) 
(PID.TID 0000.0001) OBCS_CHECK: #define ALLOW_OBCS
(PID.TID 0000.0001) OBCS_CHECK: start summary:
(PID.TID 0000.0001) useOBCSbalance = /* balance the flow through OB */
(PID.TID 0000.0001)                   F
(PID.TID 0000.0001)     ;
(PID.TID 0000.0001) OBCS_uvApplyFac = /* Factor to apply to U,V 2nd column/row */
(PID.TID 0000.0001)                 1.000000000000000E+00
(PID.TID 0000.0001)     ;
(PID.TID 0000.0001) OBCS_monitorFreq = /* monitor output frequency [s] */
(PID.TID 0000.0001)                 2.500000000000000E+03
(PID.TID 0000.0001)     ;
(PID.TID 0000.0001) OBCS_monSelect = /* select group of variables to monitor */
(PID.TID 0000.0001)                       0
(PID.TID 0000.0001)     ;
(PID.TID 0000.0001) ======== Tile bi=   1 , bj=   1 ========
(PID.TID 0000.0001)  OB_Jn = /* Northern OB local indices */
(PID.TID 0000.0001)    34 @        0                            /* I = -1: 32 */
(PID.TID 0000.0001)  OB_Js = /* Southern OB local indices */
(PID.TID 0000.0001)    34 @        0                            /* I = -1: 32 */
(PID.TID 0000.0001)  OB_Ie = /* Eastern OB local indices */
(PID.TID 0000.0001)     5 @        0                            /* J = -1:  3 */
(PID.TID 0000.0001)  OB_Iw = /* Western OB local indices */
(PID.TID 0000.0001)     5 @        1                            /* J = -1:  3 */
(PID.TID 0000.0001) ======== Tile bi=   2 , bj=   1 ========
(PID.TID 0000.0001)  OB_Jn = /* Northern OB local indices */
(PID.TID 0000.0001)    34 @        0                            /* I = -1: 32 */
(PID.TID 0000.0001)  OB_Js = /* Southern OB local indices */
(PID.TID 0000.0001)    34 @        0                            /* I = -1: 32 */
(PID.TID 0000.0001)  OB_Ie = /* Eastern OB local indices */
(PID.TID 0000.0001)     5 @       30                            /* J = -1:  3 */
(PID.TID 0000.0001)  OB_Iw = /* Western OB local indices */
(PID.TID 0000.0001)     5 @        0                            /* J = -1:  3 */
(PID.TID 0000.0001) OBCS_CHECK: end summary.
(PID.TID 0000.0001) OBCS_CHECK: #define ALLOW_ORLANSKI
(PID.TID 0000.0001) OBCS_CHECK: set-up OK
(PID.TID 0000.0001) OBCS_CHECK: check Inside Mask and OB locations: OK
(PID.TID 0000.0001) GAD_CHECK: #define ALLOW_GENERIC_ADVDIFF
(PID.TID 0000.0001) // =======================================================
(PID.TID 0000.0001) // CONFIG_CHECK : Normal End
(PID.TID 0000.0001) // =======================================================
(PID.TID 0000.0001) 
(PID.TID 0000.0001)  MDS_READ_FIELD: opening global file: T.init
(PID.TID 0000.0001) Start initial hydrostatic pressure computation
(PID.TID 0000.0001) Pressure is predetermined for buoyancyRelation OCEANIC
(PID.TID 0000.0001) 
(PID.TID 0000.0001) // =======================================================
(PID.TID 0000.0001) // Model current state
(PID.TID 0000.0001) // =======================================================
(PID.TID 0000.0001) 
(PID.TID 0000.0001) // =======================================================
(PID.TID 0000.0001) // Begin MONITOR dynamic field statistics
(PID.TID 0000.0001) // =======================================================
(PID.TID 0000.0001) %MON time_tsnumber                =                     0
(PID.TID 0000.0001) %MON time_secondsf                =   0.0000000000000E+00
(PID.TID 0000.0001) %MON dynstat_eta_max              =   0.0000000000000E+00
(PID.TID 0000.0001) %MON dynstat_eta_min              =   0.0000000000000E+00
(PID.TID 0000.0001) %MON dynstat_eta_mean             =   0.0000000000000E+00
(PID.TID 0000.0001) %MON dynstat_eta_sd               =   0.0000000000000E+00
(PID.TID 0000.0001) %MON dynstat_eta_del2             =   0.0000000000000E+00
(PID.TID 0000.0001) %MON dynstat_uvel_max             =   0.0000000000000E+00
(PID.TID 0000.0001) %MON dynstat_uvel_min             =   0.0000000000000E+00
(PID.TID 0000.0001) %MON dynstat_uvel_mean            =   0.0000000000000E+00
(PID.TID 0000.0001) %MON dynstat_uvel_sd              =   0.0000000000000E+00
(PID.TID 0000.0001) %MON dynstat_uvel_del2            =   0.0000000000000E+00
(PID.TID 0000.0001) %MON dynstat_vvel_max             =   0.0000000000000E+00
(PID.TID 0000.0001) %MON dynstat_vvel_min             =   0.0000000000000E+00
(PID.TID 0000.0001) %MON dynstat_vvel_mean            =   0.0000000000000E+00
(PID.TID 0000.0001) %MON dynstat_vvel_sd              =   0.0000000000000E+00
(PID.TID 0000.0001) %MON dynstat_vvel_del2            =   0.0000000000000E+00
(PID.TID 0000.0001) %MON dynstat_wvel_max             =  -0.0000000000000E+00
(PID.TID 0000.0001) %MON dynstat_wvel_min             =  -0.0000000000000E+00
(PID.TID 0000.0001) %MON dynstat_wvel_mean            =   0.0000000000000E+00
(PID.TID 0000.0001) %MON dynstat_wvel_sd              =   0.0000000000000E+00
(PID.TID 0000.0001) %MON dynstat_wvel_del2            =   0.0000000000000E+00
(PID.TID 0000.0001) %MON dynstat_theta_max            =   4.8419979612640E-02
(PID.TID 0000.0001) %MON dynstat_theta_min            =  -4.8419979612640E-02
(PID.TID 0000.0001) %MON dynstat_theta_mean           =   1.4460841624175E-02
(PID.TID 0000.0001) %MON dynstat_theta_sd             =   2.7660544389986E-02
(PID.TID 0000.0001) %MON dynstat_theta_del2           =   1.8343774058368E-10
(PID.TID 0000.0001) %MON dynstat_salt_max             =   3.5000000000000E+01
(PID.TID 0000.0001) %MON dynstat_salt_min             =   3.5000000000000E+01
(PID.TID 0000.0001) %MON dynstat_salt_mean            =   3.5000000000000E+01
(PID.TID 0000.0001) %MON dynstat_salt_sd              =   3.5527136788005E-13
(PID.TID 0000.0001) %MON dynstat_salt_del2            =   2.6218552499998E-01
(PID.TID 0000.0001) %MON advcfl_uvel_max              =   0.0000000000000E+00
(PID.TID 0000.0001) %MON advcfl_vvel_max              =   0.0000000000000E+00
(PID.TID 0000.0001) %MON advcfl_wvel_max              =   0.0000000000000E+00
(PID.TID 0000.0001) %MON advcfl_W_hf_max              =   0.0000000000000E+00
(PID.TID 0000.0001) %MON pe_b_mean                    =   0.0000000000000E+00
(PID.TID 0000.0001) %MON ke_max                       =   0.0000000000000E+00
(PID.TID 0000.0001) %MON ke_mean                      =   0.0000000000000E+00
(PID.TID 0000.0001) %MON ke_vol                       =   6.4007813759742E+09
(PID.TID 0000.0001) %MON vort_r_min                   =   0.0000000000000E+00
(PID.TID 0000.0001) %MON vort_r_max                   =   0.0000000000000E+00
(PID.TID 0000.0001) %MON vort_a_mean                  =   0.0000000000000E+00
(PID.TID 0000.0001) %MON vort_a_sd                    =   0.0000000000000E+00
(PID.TID 0000.0001) %MON vort_p_mean                  =   0.0000000000000E+00
(PID.TID 0000.0001) %MON vort_p_sd                    =   0.0000000000000E+00
(PID.TID 0000.0001) %MON surfExpan_theta_mean         =   0.0000000000000E+00
(PID.TID 0000.0001) %MON surfExpan_salt_mean          =   0.0000000000000E+00
(PID.TID 0000.0001) // =======================================================
(PID.TID 0000.0001) // End MONITOR dynamic field statistics
(PID.TID 0000.0001) // =======================================================
(PID.TID 0000.0001) // =======================================================
(PID.TID 0000.0001) // Begin OBCS MONITOR field statistics
(PID.TID 0000.0001) // =======================================================
(PID.TID 0000.0001) %MON obc_W_uVel_max               =   0.0000000000000E+00
(PID.TID 0000.0001) %MON obc_W_uVel_min               =   0.0000000000000E+00
(PID.TID 0000.0001) %MON obc_W_uVel_mean              =   0.0000000000000E+00
(PID.TID 0000.0001) %MON obc_W_uVel_sd                =   0.0000000000000E+00
(PID.TID 0000.0001) %MON obc_W_uVel_Int               =   0.0000000000000E+00
(PID.TID 0000.0001) // =======================================================
(PID.TID 0000.0001) // End OBCS MONITOR field statistics
(PID.TID 0000.0001) // =======================================================
(PID.TID 0000.0001) SOLVE_FOR_PRESSURE: putPmEinXvector =    F
(PID.TID 0000.0001) SOLVE_FOR_PRESSURE: zeroPsNH=    F , zeroMeanPnh=    F
(PID.TID 0000.0001) SOLVE_FOR_PRESSURE: oldFreeSurfTerm =    F
 cg2d: Sum(rhs),rhsMax =   0.00000000000000E+00  0.00000000000000E+00
 cg2d: Sum(rhs),rhsMax =  -7.63271390535891E-13  1.07634058172070E-06
 cg2d: Sum(rhs),rhsMax =   1.41282385096586E-15  7.54886693778342E-05
 cg2d: Sum(rhs),rhsMax =  -6.92517874642529E-15  9.21591535049391E-05
 cg2d: Sum(rhs),rhsMax =  -6.23269881885880E-15  1.87619597708790E-04
(PID.TID 0000.0001)                    cg2d_init_res =    7.04684413122200E-01
(PID.TID 0000.0001)                       cg2d_iters =    58
(PID.TID 0000.0001)                         cg2d_res =    3.69643116856508E-19
(PID.TID 0000.0001) // =======================================================
(PID.TID 0000.0001) // Begin MONITOR dynamic field statistics
(PID.TID 0000.0001) // =======================================================
(PID.TID 0000.0001) %MON time_tsnumber                =                     5
(PID.TID 0000.0001) %MON time_secondsf                =   2.5000000000000E+03
(PID.TID 0000.0001) %MON dynstat_eta_max              =   1.8838689085619E-05
(PID.TID 0000.0001) %MON dynstat_eta_min              =  -7.0430999060390E-07
(PID.TID 0000.0001) %MON dynstat_eta_mean             =   2.8749054644975E-18
(PID.TID 0000.0001) %MON dynstat_eta_sd               =   2.5024863314775E-06
(PID.TID 0000.0001) %MON dynstat_eta_del2             =   3.2238425034549E-07
(PID.TID 0000.0001) %MON dynstat_uvel_max             =   8.0150165287875E-03
(PID.TID 0000.0001) %MON dynstat_uvel_min             =  -8.0150165287875E-03
(PID.TID 0000.0001) %MON dynstat_uvel_mean            =  -2.1302863362960E-08
(PID.TID 0000.0001) %MON dynstat_uvel_sd              =   1.0524319999168E-03
(PID.TID 0000.0001) %MON dynstat_uvel_del2            =   3.6123147225178E-05
(PID.TID 0000.0001) %MON dynstat_vvel_max             =   0.0000000000000E+00
(PID.TID 0000.0001) %MON dynstat_vvel_min             =   0.0000000000000E+00
(PID.TID 0000.0001) %MON dynstat_vvel_mean            =   0.0000000000000E+00
(PID.TID 0000.0001) %MON dynstat_vvel_sd              =   0.0000000000000E+00
(PID.TID 0000.0001) %MON dynstat_vvel_del2            =   0.0000000000000E+00
(PID.TID 0000.0001) %MON dynstat_wvel_max             =   3.0496202345194E-07
(PID.TID 0000.0001) %MON dynstat_wvel_min             =  -2.1666602986528E-03
(PID.TID 0000.0001) %MON dynstat_wvel_mean            =  -5.2567544154093E-05
(PID.TID 0000.0001) %MON dynstat_wvel_sd              =   2.8366908412925E-04
(PID.TID 0000.0001) %MON dynstat_wvel_del2            =   2.3997757219285E-05
(PID.TID 0000.0001) %MON dynstat_theta_max            =   4.8411682571782E-02
(PID.TID 0000.0001) %MON dynstat_theta_min            =  -4.8294115600338E-02
(PID.TID 0000.0001) %MON dynstat_theta_mean           =   1.4493369127348E-02
(PID.TID 0000.0001) %MON dynstat_theta_sd             =   2.7622949941221E-02
(PID.TID 0000.0001) %MON dynstat_theta_del2           =   1.0329825360464E-05
(PID.TID 0000.0001) %MON dynstat_salt_max             =   3.5000000000000E+01
(PID.TID 0000.0001) %MON dynstat_salt_min             =   3.5000000000000E+01
(PID.TID 0000.0001) %MON dynstat_salt_mean            =   3.5000000000000E+01
(PID.TID 0000.0001) %MON dynstat_salt_sd              =   3.5527136788005E-13
(PID.TID 0000.0001) %MON dynstat_salt_del2            =   2.6218552499998E-01
(PID.TID 0000.0001) %MON advcfl_uvel_max              =   1.8380301062257E-02
(PID.TID 0000.0001) %MON advcfl_vvel_max              =   0.0000000000000E+00
(PID.TID 0000.0001) %MON advcfl_wvel_max              =   1.0833301493264E-01
(PID.TID 0000.0001) %MON advcfl_W_hf_max              =   1.0833301493264E-01
(PID.TID 0000.0001) %MON pe_b_mean                    =   3.0343749883114E-13
(PID.TID 0000.0001) %MON ke_max                       =   1.6167187656620E-05
(PID.TID 0000.0001) %MON ke_mean                      =   2.7858060978948E-07
(PID.TID 0000.0001) %MON ke_vol                       =   6.4007813759742E+09
(PID.TID 0000.0001) %MON vort_r_min                   =   0.0000000000000E+00
(PID.TID 0000.0001) %MON vort_r_max                   =   0.0000000000000E+00
(PID.TID 0000.0001) %MON vort_a_mean                  =   0.0000000000000E+00
(PID.TID 0000.0001) %MON vort_a_sd                    =   0.0000000000000E+00
(PID.TID 0000.0001) %MON vort_p_mean                  =   0.0000000000000E+00
(PID.TID 0000.0001) %MON vort_p_sd                    =   0.0000000000000E+00
(PID.TID 0000.0001) %MON surfExpan_theta_mean         =   1.2478027819255E-13
(PID.TID 0000.0001) %MON surfExpan_salt_mean          =   1.9656811323988E-19
(PID.TID 0000.0001) // =======================================================
(PID.TID 0000.0001) // End MONITOR dynamic field statistics
(PID.TID 0000.0001) // =======================================================
(PID.TID 0000.0001) // =======================================================
(PID.TID 0000.0001) // Begin OBCS MONITOR field statistics
(PID.TID 0000.0001) // =======================================================
(PID.TID 0000.0001) %MON obc_W_uVel_max               =   8.0150165287875E-03
(PID.TID 0000.0001) %MON obc_W_uVel_min               =  -8.0150165287875E-03
(PID.TID 0000.0001) %MON obc_W_uVel_mean              =   3.4106051316485E-19
(PID.TID 0000.0001) %MON obc_W_uVel_sd                =   5.6849974888139E-03
(PID.TID 0000.0001) %MON obc_W_uVel_Int               =   3.4106051316485E-13
(PID.TID 0000.0001) // =======================================================
(PID.TID 0000.0001) // End OBCS MONITOR field statistics
(PID.TID 0000.0001) // =======================================================
 cg2d: Sum(rhs),rhsMax =  -2.47253660688035E-15  2.18318804269155E-04
 cg2d: Sum(rhs),rhsMax =  -6.11210165596052E-15  3.19782805329134E-04
 cg2d: Sum(rhs),rhsMax =  -1.51537582395583E-16  3.50014219843963E-04
 cg2d: Sum(rhs),rhsMax =   5.65171087352407E-16  4.42716694815322E-04
 cg2d: Sum(rhs),rhsMax =  -4.02596792709042E-15  4.59164943928680E-04
(PID.TID 0000.0001)                    cg2d_init_res =    8.09475713585763E-02
(PID.TID 0000.0001)                       cg2d_iters =    58
(PID.TID 0000.0001)                         cg2d_res =    6.73521128648882E-19
(PID.TID 0000.0001) // =======================================================
(PID.TID 0000.0001) // Begin MONITOR dynamic field statistics
(PID.TID 0000.0001) // =======================================================
(PID.TID 0000.0001) %MON time_tsnumber                =                    10
(PID.TID 0000.0001) %MON time_secondsf                =   5.0000000000000E+03
(PID.TID 0000.0001) %MON dynstat_eta_max              =   5.6399027008678E-05
(PID.TID 0000.0001) %MON dynstat_eta_min              =  -1.5266432575669E-06
(PID.TID 0000.0001) %MON dynstat_eta_mean             =   5.8781209093868E-18
(PID.TID 0000.0001) %MON dynstat_eta_sd               =   7.6049418302130E-06
(PID.TID 0000.0001) %MON dynstat_eta_del2             =   6.5220433222148E-07
(PID.TID 0000.0001) %MON dynstat_uvel_max             =   1.5044623392047E-02
(PID.TID 0000.0001) %MON dynstat_uvel_min             =  -1.5044623392047E-02
(PID.TID 0000.0001) %MON dynstat_uvel_mean            =  -2.4951840628837E-08
(PID.TID 0000.0001) %MON dynstat_uvel_sd              =   2.0643256049420E-03
(PID.TID 0000.0001) %MON dynstat_uvel_del2            =   3.8288499380825E-05
(PID.TID 0000.0001) %MON dynstat_vvel_max             =   0.0000000000000E+00
(PID.TID 0000.0001) %MON dynstat_vvel_min             =   0.0000000000000E+00
(PID.TID 0000.0001) %MON dynstat_vvel_mean            =   0.0000000000000E+00
(PID.TID 0000.0001) %MON dynstat_vvel_sd              =   0.0000000000000E+00
(PID.TID 0000.0001) %MON dynstat_vvel_del2            =   0.0000000000000E+00
(PID.TID 0000.0001) %MON dynstat_wvel_max             =   1.2023234054606E-06
(PID.TID 0000.0001) %MON dynstat_wvel_min             =  -3.0321641043089E-03
(PID.TID 0000.0001) %MON dynstat_wvel_mean            =  -9.8672148909813E-05
(PID.TID 0000.0001) %MON dynstat_wvel_sd              =   4.2400851948501E-04
(PID.TID 0000.0001) %MON dynstat_wvel_del2            =   2.6322067538248E-05
(PID.TID 0000.0001) %MON dynstat_theta_max            =   4.8572049742365E-02
(PID.TID 0000.0001) %MON dynstat_theta_min            =  -4.8171354040724E-02
(PID.TID 0000.0001) %MON dynstat_theta_mean           =   1.4588900123648E-02
(PID.TID 0000.0001) %MON dynstat_theta_sd             =   2.7557999898246E-02
(PID.TID 0000.0001) %MON dynstat_theta_del2           =   1.9369499371408E-05
(PID.TID 0000.0001) %MON dynstat_salt_max             =   3.5000000000000E+01
(PID.TID 0000.0001) %MON dynstat_salt_min             =   3.5000000000000E+01
(PID.TID 0000.0001) %MON dynstat_salt_mean            =   3.5000000000000E+01
(PID.TID 0000.0001) %MON dynstat_salt_sd              =   3.5527136788005E-13
(PID.TID 0000.0001) %MON dynstat_salt_del2            =   2.6218552499998E-01
(PID.TID 0000.0001) %MON advcfl_uvel_max              =   3.4500828079506E-02
(PID.TID 0000.0001) %MON advcfl_vvel_max              =   0.0000000000000E+00
(PID.TID 0000.0001) %MON advcfl_wvel_max              =   1.5160820521545E-01
(PID.TID 0000.0001) %MON advcfl_W_hf_max              =   1.5160820521545E-01
(PID.TID 0000.0001) %MON pe_b_mean                    =   2.8023192804109E-12
(PID.TID 0000.0001) %MON ke_max                       =   6.2418922137623E-05
(PID.TID 0000.0001) %MON ke_mean                      =   1.1610071744659E-06
(PID.TID 0000.0001) %MON ke_vol                       =   6.4007813759742E+09
(PID.TID 0000.0001) %MON vort_r_min                   =   0.0000000000000E+00
(PID.TID 0000.0001) %MON vort_r_max                   =   0.0000000000000E+00
(PID.TID 0000.0001) %MON vort_a_mean                  =   0.0000000000000E+00
(PID.TID 0000.0001) %MON vort_a_sd                    =   0.0000000000000E+00
(PID.TID 0000.0001) %MON vort_p_mean                  =   0.0000000000000E+00
(PID.TID 0000.0001) %MON vort_p_sd                    =   0.0000000000000E+00
(PID.TID 0000.0001) %MON surfExpan_theta_mean         =  -5.7678326416939E-13
(PID.TID 0000.0001) %MON surfExpan_salt_mean          =   3.8563825598131E-19
(PID.TID 0000.0001) // =======================================================
(PID.TID 0000.0001) // End MONITOR dynamic field statistics
(PID.TID 0000.0001) // =======================================================
(PID.TID 0000.0001) // =======================================================
(PID.TID 0000.0001) // Begin OBCS MONITOR field statistics
(PID.TID 0000.0001) // =======================================================
(PID.TID 0000.0001) %MON obc_W_uVel_max               =   1.5044623392047E-02
(PID.TID 0000.0001) %MON obc_W_uVel_min               =  -1.5044623392047E-02
(PID.TID 0000.0001) %MON obc_W_uVel_mean              =   6.8212102632970E-19
(PID.TID 0000.0001) %MON obc_W_uVel_sd                =   1.0671050508348E-02
(PID.TID 0000.0001) %MON obc_W_uVel_Int               =   6.8212102632970E-13
(PID.TID 0000.0001) // =======================================================
(PID.TID 0000.0001) // End OBCS MONITOR field statistics
(PID.TID 0000.0001) // =======================================================
 cg2d: Sum(rhs),rhsMax =  -5.38658744345111E-15  5.31285549571602E-04
 cg2d: Sum(rhs),rhsMax =  -6.51686820826725E-15  5.24996738331078E-04
 cg2d: Sum(rhs),rhsMax =  -6.97968701064700E-15  5.70212072495960E-04
 cg2d: Sum(rhs),rhsMax =  -5.13853553891358E-15  5.38368110872198E-04
 cg2d: Sum(rhs),rhsMax =  -3.05170385489495E-15  5.56671346381921E-04
(PID.TID 0000.0001)                    cg2d_init_res =    9.28857316465843E-02
(PID.TID 0000.0001)                       cg2d_iters =    58
(PID.TID 0000.0001)                         cg2d_res =    3.33081756557596E-19
(PID.TID 0000.0001) // =======================================================
(PID.TID 0000.0001) // Begin MONITOR dynamic field statistics
(PID.TID 0000.0001) // =======================================================
(PID.TID 0000.0001) %MON time_tsnumber                =                    15
(PID.TID 0000.0001) %MON time_secondsf                =   7.5000000000000E+03
(PID.TID 0000.0001) %MON dynstat_eta_max              =   9.4236610522126E-05
(PID.TID 0000.0001) %MON dynstat_eta_min              =  -3.2392787647150E-06
(PID.TID 0000.0001) %MON dynstat_eta_mean             =   1.4902387254958E-17
(PID.TID 0000.0001) %MON dynstat_eta_sd               =   1.3545172939092E-05
(PID.TID 0000.0001) %MON dynstat_eta_del2             =   6.2683349836473E-07
(PID.TID 0000.0001) %MON dynstat_uvel_max             =   2.0224562540773E-02
(PID.TID 0000.0001) %MON dynstat_uvel_min             =  -2.0224562540773E-02
(PID.TID 0000.0001) %MON dynstat_uvel_mean            =  -3.7273760728885E-08
(PID.TID 0000.0001) %MON dynstat_uvel_sd              =   3.0889812337668E-03
(PID.TID 0000.0001) %MON dynstat_uvel_del2            =   3.5141098078717E-05
(PID.TID 0000.0001) %MON dynstat_vvel_max             =   0.0000000000000E+00
(PID.TID 0000.0001) %MON dynstat_vvel_min             =   0.0000000000000E+00
(PID.TID 0000.0001) %MON dynstat_vvel_mean            =   0.0000000000000E+00
(PID.TID 0000.0001) %MON dynstat_vvel_sd              =   0.0000000000000E+00
(PID.TID 0000.0001) %MON dynstat_vvel_del2            =   0.0000000000000E+00
(PID.TID 0000.0001) %MON dynstat_wvel_max             =   2.6210589772701E-06
(PID.TID 0000.0001) %MON dynstat_wvel_min             =  -2.5843099540541E-03
(PID.TID 0000.0001) %MON dynstat_wvel_mean            =  -1.3264546374181E-04
(PID.TID 0000.0001) %MON dynstat_wvel_sd              =   4.6751138388426E-04
(PID.TID 0000.0001) %MON dynstat_wvel_del2            =   1.7482560583725E-05
(PID.TID 0000.0001) %MON dynstat_theta_max            =   4.8757454004312E-02
(PID.TID 0000.0001) %MON dynstat_theta_min            =  -4.8051473518898E-02
(PID.TID 0000.0001) %MON dynstat_theta_mean           =   1.4733863333825E-02
(PID.TID 0000.0001) %MON dynstat_theta_sd             =   2.7476750270764E-02
(PID.TID 0000.0001) %MON dynstat_theta_del2           =   2.5130323007616E-05
(PID.TID 0000.0001) %MON dynstat_salt_max             =   3.5000000000000E+01
(PID.TID 0000.0001) %MON dynstat_salt_min             =   3.5000000000000E+01
(PID.TID 0000.0001) %MON dynstat_salt_mean            =   3.5000000000000E+01
(PID.TID 0000.0001) %MON dynstat_salt_sd              =   3.4106051316485E-13
(PID.TID 0000.0001) %MON dynstat_salt_del2            =   2.6218552499998E-01
(PID.TID 0000.0001) %MON advcfl_uvel_max              =   4.6379635901772E-02
(PID.TID 0000.0001) %MON advcfl_vvel_max              =   0.0000000000000E+00
(PID.TID 0000.0001) %MON advcfl_wvel_max              =   1.2921549770271E-01
(PID.TID 0000.0001) %MON advcfl_W_hf_max              =   1.2921549770271E-01
(PID.TID 0000.0001) %MON pe_b_mean                    =   8.8898601794834E-12
(PID.TID 0000.0001) %MON ke_max                       =   1.3729536886650E-04
(PID.TID 0000.0001) %MON ke_mean                      =   3.0184800544310E-06
(PID.TID 0000.0001) %MON ke_vol                       =   6.4007813759742E+09
(PID.TID 0000.0001) %MON vort_r_min                   =   0.0000000000000E+00
(PID.TID 0000.0001) %MON vort_r_max                   =   0.0000000000000E+00
(PID.TID 0000.0001) %MON vort_a_mean                  =   0.0000000000000E+00
(PID.TID 0000.0001) %MON vort_a_sd                    =   0.0000000000000E+00
(PID.TID 0000.0001) %MON vort_p_mean                  =   0.0000000000000E+00
(PID.TID 0000.0001) %MON vort_p_sd                    =   0.0000000000000E+00
(PID.TID 0000.0001) %MON surfExpan_theta_mean         =   1.8309420795716E-12
(PID.TID 0000.0001) %MON surfExpan_salt_mean          =   3.5433123321043E-19
(PID.TID 0000.0001) // =======================================================
(PID.TID 0000.0001) // End MONITOR dynamic field statistics
(PID.TID 0000.0001) // =======================================================
(PID.TID 0000.0001) // =======================================================
(PID.TID 0000.0001) // Begin OBCS MONITOR field statistics
(PID.TID 0000.0001) // =======================================================
(PID.TID 0000.0001) %MON obc_W_uVel_max               =   2.0224562540773E-02
(PID.TID 0000.0001) %MON obc_W_uVel_min               =  -2.0224562540773E-02
(PID.TID 0000.0001) %MON obc_W_uVel_mean              =   4.5474735088646E-19
(PID.TID 0000.0001) %MON obc_W_uVel_sd                =   1.4345146618687E-02
(PID.TID 0000.0001) %MON obc_W_uVel_Int               =   4.5474735088646E-13
(PID.TID 0000.0001) // =======================================================
(PID.TID 0000.0001) // End OBCS MONITOR field statistics
(PID.TID 0000.0001) // =======================================================
 cg2d: Sum(rhs),rhsMax =  -1.06690914783436E-14  5.02430297235937E-04
 cg2d: Sum(rhs),rhsMax =  -1.57916214826859E-14  4.99101069053968E-04
 cg2d: Sum(rhs),rhsMax =  -2.03963365294491E-14  4.29800746587542E-04
 cg2d: Sum(rhs),rhsMax =  -2.76266368722661E-14  4.13045463389716E-04
 cg2d: Sum(rhs),rhsMax =  -3.37009066486704E-14  3.37550625781315E-04
(PID.TID 0000.0001)                    cg2d_init_res =    3.89982546051805E-01
(PID.TID 0000.0001)                       cg2d_iters =    58
(PID.TID 0000.0001)                         cg2d_res =    9.66070598010594E-19
(PID.TID 0000.0001) // =======================================================
(PID.TID 0000.0001) // Begin MONITOR dynamic field statistics
(PID.TID 0000.0001) // =======================================================
(PID.TID 0000.0001) %MON time_tsnumber                =                    20
(PID.TID 0000.0001) %MON time_secondsf                =   1.0000000000000E+04
(PID.TID 0000.0001) %MON dynstat_eta_max              =   1.1182879653391E-04
(PID.TID 0000.0001) %MON dynstat_eta_min              =  -4.7888533290475E-06
(PID.TID 0000.0001) %MON dynstat_eta_mean             =   5.1152103081597E-17
(PID.TID 0000.0001) %MON dynstat_eta_sd               =   1.8544612932359E-05
(PID.TID 0000.0001) %MON dynstat_eta_del2             =   6.9380243171193E-07
(PID.TID 0000.0001) %MON dynstat_uvel_max             =   2.2917984121235E-02
(PID.TID 0000.0001) %MON dynstat_uvel_min             =  -2.2917984121235E-02
(PID.TID 0000.0001) %MON dynstat_uvel_mean            =  -2.7462650087432E-08
(PID.TID 0000.0001) %MON dynstat_uvel_sd              =   4.0273407192776E-03
(PID.TID 0000.0001) %MON dynstat_uvel_del2            =   4.4079650924431E-05
(PID.TID 0000.0001) %MON dynstat_vvel_max             =   0.0000000000000E+00
(PID.TID 0000.0001) %MON dynstat_vvel_min             =   0.0000000000000E+00
(PID.TID 0000.0001) %MON dynstat_vvel_mean            =   0.0000000000000E+00
(PID.TID 0000.0001) %MON dynstat_vvel_sd              =   0.0000000000000E+00
(PID.TID 0000.0001) %MON dynstat_vvel_del2            =   0.0000000000000E+00
(PID.TID 0000.0001) %MON dynstat_wvel_max             =   4.5035415423343E-06
(PID.TID 0000.0001) %MON dynstat_wvel_min             =  -2.9013866890775E-03
(PID.TID 0000.0001) %MON dynstat_wvel_mean            =  -1.5031062479893E-04
(PID.TID 0000.0001) %MON dynstat_wvel_sd              =   4.7673567343736E-04
(PID.TID 0000.0001) %MON dynstat_wvel_del2            =   1.5173722844284E-05
(PID.TID 0000.0001) %MON dynstat_theta_max            =   4.8897331896770E-02
(PID.TID 0000.0001) %MON dynstat_theta_min            =  -4.7934334555807E-02
(PID.TID 0000.0001) %MON dynstat_theta_mean           =   1.4910334428181E-02
(PID.TID 0000.0001) %MON dynstat_theta_sd             =   2.7387730898775E-02
(PID.TID 0000.0001) %MON dynstat_theta_del2           =   2.4079847838538E-05
(PID.TID 0000.0001) %MON dynstat_salt_max             =   3.5000000000000E+01
(PID.TID 0000.0001) %MON dynstat_salt_min             =   3.5000000000000E+01
(PID.TID 0000.0001) %MON dynstat_salt_mean            =   3.5000000000000E+01
(PID.TID 0000.0001) %MON dynstat_salt_sd              =   3.5527136788005E-13
(PID.TID 0000.0001) %MON dynstat_salt_del2            =   2.6218552499998E-01
(PID.TID 0000.0001) %MON advcfl_uvel_max              =   5.2556279375764E-02
(PID.TID 0000.0001) %MON advcfl_vvel_max              =   0.0000000000000E+00
(PID.TID 0000.0001) %MON advcfl_wvel_max              =   1.4506933445388E-01
(PID.TID 0000.0001) %MON advcfl_W_hf_max              =   1.4506933445388E-01
(PID.TID 0000.0001) %MON pe_b_mean                    =   1.6663313607943E-11
(PID.TID 0000.0001) %MON ke_max                       =   2.1957134513114E-04
(PID.TID 0000.0001) %MON ke_mean                      =   5.8594729930489E-06
(PID.TID 0000.0001) %MON ke_vol                       =   6.4007813759742E+09
(PID.TID 0000.0001) %MON vort_r_min                   =   0.0000000000000E+00
(PID.TID 0000.0001) %MON vort_r_max                   =   0.0000000000000E+00
(PID.TID 0000.0001) %MON vort_a_mean                  =   0.0000000000000E+00
(PID.TID 0000.0001) %MON vort_a_sd                    =   0.0000000000000E+00
(PID.TID 0000.0001) %MON vort_p_mean                  =   0.0000000000000E+00
(PID.TID 0000.0001) %MON vort_p_sd                    =   0.0000000000000E+00
(PID.TID 0000.0001) %MON surfExpan_theta_mean         =  -1.9738842395355E-12
(PID.TID 0000.0001) %MON surfExpan_salt_mean          =   6.6227785506144E-19
(PID.TID 0000.0001) // =======================================================
(PID.TID 0000.0001) // End MONITOR dynamic field statistics
(PID.TID 0000.0001) // =======================================================
(PID.TID 0000.0001) // =======================================================
(PID.TID 0000.0001) // Begin OBCS MONITOR field statistics
(PID.TID 0000.0001) // =======================================================
(PID.TID 0000.0001) %MON obc_W_uVel_max               =   2.2917984121235E-02
(PID.TID 0000.0001) %MON obc_W_uVel_min               =  -2.2917984121235E-02
(PID.TID 0000.0001) %MON obc_W_uVel_mean              =  -4.5474735088646E-19
(PID.TID 0000.0001) %MON obc_W_uVel_sd                =   1.6255572488209E-02
(PID.TID 0000.0001) %MON obc_W_uVel_Int               =  -4.5474735088646E-13
(PID.TID 0000.0001) // =======================================================
(PID.TID 0000.0001) // End OBCS MONITOR field statistics
(PID.TID 0000.0001) // =======================================================
 cg2d: Sum(rhs),rhsMax =  -4.04491978106547E-14  3.15794230598346E-04
 cg2d: Sum(rhs),rhsMax =  -5.70187343520989E-14  2.89168296501523E-04
 cg2d: Sum(rhs),rhsMax =  -6.20939931417208E-14  2.90431798559854E-04
 cg2d: Sum(rhs),rhsMax =  -5.88992830202750E-14  3.41072694176273E-04
 cg2d: Sum(rhs),rhsMax =  -6.86126502835727E-14  3.17878452864495E-04
(PID.TID 0000.0001)                    cg2d_init_res =    2.44665353898848E-01
(PID.TID 0000.0001)                       cg2d_iters =    58
(PID.TID 0000.0001)                         cg2d_res =    8.45755908345072E-19
(PID.TID 0000.0001) // =======================================================
(PID.TID 0000.0001) // Begin MONITOR dynamic field statistics
(PID.TID 0000.0001) // =======================================================
(PID.TID 0000.0001) %MON time_tsnumber                =                    25
(PID.TID 0000.0001) %MON time_secondsf                =   1.2500000000000E+04
(PID.TID 0000.0001) %MON dynstat_eta_max              =   1.1828616548566E-04
(PID.TID 0000.0001) %MON dynstat_eta_min              =  -6.3665385986620E-06
(PID.TID 0000.0001) %MON dynstat_eta_mean             =   9.9801386156810E-17
(PID.TID 0000.0001) %MON dynstat_eta_sd               =   2.2721254976444E-05
(PID.TID 0000.0001) %MON dynstat_eta_del2             =   7.8124565292346E-07
(PID.TID 0000.0001) %MON dynstat_uvel_max             =   2.2793744255040E-02
(PID.TID 0000.0001) %MON dynstat_uvel_min             =  -2.2844529130039E-02
(PID.TID 0000.0001) %MON dynstat_uvel_mean            =  -4.7938943640428E-08
(PID.TID 0000.0001) %MON dynstat_uvel_sd              =   4.7329870738802E-03
(PID.TID 0000.0001) %MON dynstat_uvel_del2            =   4.9081339375581E-05
(PID.TID 0000.0001) %MON dynstat_vvel_max             =   0.0000000000000E+00
(PID.TID 0000.0001) %MON dynstat_vvel_min             =   0.0000000000000E+00
(PID.TID 0000.0001) %MON dynstat_vvel_mean            =   0.0000000000000E+00
(PID.TID 0000.0001) %MON dynstat_vvel_sd              =   0.0000000000000E+00
(PID.TID 0000.0001) %MON dynstat_vvel_del2            =   0.0000000000000E+00
(PID.TID 0000.0001) %MON dynstat_wvel_max             =   6.8078520982465E-06
(PID.TID 0000.0001) %MON dynstat_wvel_min             =  -2.8175074238288E-03
(PID.TID 0000.0001) %MON dynstat_wvel_mean            =  -1.4949578123268E-04
(PID.TID 0000.0001) %MON dynstat_wvel_sd              =   4.7014072742419E-04
(PID.TID 0000.0001) %MON dynstat_wvel_del2            =   1.6470958003837E-05
(PID.TID 0000.0001) %MON dynstat_theta_max            =   4.8967580235720E-02
(PID.TID 0000.0001) %MON dynstat_theta_min            =  -4.7819782565905E-02
(PID.TID 0000.0001) %MON dynstat_theta_mean           =   1.5096884457441E-02
(PID.TID 0000.0001) %MON dynstat_theta_sd             =   2.7296488557827E-02
(PID.TID 0000.0001) %MON dynstat_theta_del2           =   2.5040362716189E-05
(PID.TID 0000.0001) %MON dynstat_salt_max             =   3.5000000000000E+01
(PID.TID 0000.0001) %MON dynstat_salt_min             =   3.5000000000000E+01
(PID.TID 0000.0001) %MON dynstat_salt_mean            =   3.5000000000000E+01
(PID.TID 0000.0001) %MON dynstat_salt_sd              =   3.5527136788005E-13
(PID.TID 0000.0001) %MON dynstat_salt_del2            =   2.6218552499998E-01
(PID.TID 0000.0001) %MON advcfl_uvel_max              =   5.2387829959865E-02
(PID.TID 0000.0001) %MON advcfl_vvel_max              =   0.0000000000000E+00
(PID.TID 0000.0001) %MON advcfl_wvel_max              =   1.4087537119144E-01
(PID.TID 0000.0001) %MON advcfl_W_hf_max              =   1.4087537119144E-01
(PID.TID 0000.0001) %MON pe_b_mean                    =   2.5014420863281E-11
(PID.TID 0000.0001) %MON ke_max                       =   2.6035682208435E-04
(PID.TID 0000.0001) %MON ke_mean                      =   8.9746511760390E-06
(PID.TID 0000.0001) %MON ke_vol                       =   6.4007813759742E+09
(PID.TID 0000.0001) %MON vort_r_min                   =   0.0000000000000E+00
(PID.TID 0000.0001) %MON vort_r_max                   =   0.0000000000000E+00
(PID.TID 0000.0001) %MON vort_a_mean                  =   0.0000000000000E+00
(PID.TID 0000.0001) %MON vort_a_sd                    =   0.0000000000000E+00
(PID.TID 0000.0001) %MON vort_p_mean                  =   0.0000000000000E+00
(PID.TID 0000.0001) %MON vort_p_sd                    =   0.0000000000000E+00
(PID.TID 0000.0001) %MON surfExpan_theta_mean         =   2.4099736024682E-12
(PID.TID 0000.0001) %MON surfExpan_salt_mean          =   6.5947901073744E-19
(PID.TID 0000.0001) // =======================================================
(PID.TID 0000.0001) // End MONITOR dynamic field statistics
(PID.TID 0000.0001) // =======================================================
(PID.TID 0000.0001) // =======================================================
(PID.TID 0000.0001) // Begin OBCS MONITOR field statistics
(PID.TID 0000.0001) // =======================================================
(PID.TID 0000.0001) %MON obc_W_uVel_max               =   2.2793744255040E-02
(PID.TID 0000.0001) %MON obc_W_uVel_min               =  -2.2793744255040E-02
(PID.TID 0000.0001) %MON obc_W_uVel_mean              =   2.5011104298756E-18
(PID.TID 0000.0001) %MON obc_W_uVel_sd                =   1.6167449984058E-02
(PID.TID 0000.0001) %MON obc_W_uVel_Int               =   2.5011104298756E-12
(PID.TID 0000.0001) // =======================================================
(PID.TID 0000.0001) // End OBCS MONITOR field statistics
(PID.TID 0000.0001) // =======================================================
 cg2d: Sum(rhs),rhsMax =  -7.22309581938085E-14  3.44765716968716E-04
 cg2d: Sum(rhs),rhsMax =  -8.87468267277147E-14  3.03022745614087E-04
 cg2d: Sum(rhs),rhsMax =  -8.78780555269021E-14  3.13834005210797E-04
 cg2d: Sum(rhs),rhsMax =  -1.14794458661027E-13  2.62634396548732E-04
 cg2d: Sum(rhs),rhsMax =  -1.18735099877143E-13  2.67196315614211E-04
(PID.TID 0000.0001)                    cg2d_init_res =    2.94297767818958E-01
(PID.TID 0000.0001)                       cg2d_iters =    58
(PID.TID 0000.0001)                         cg2d_res =    2.19824474257894E-18
(PID.TID 0000.0001) // =======================================================
(PID.TID 0000.0001) // Begin MONITOR dynamic field statistics
(PID.TID 0000.0001) // =======================================================
(PID.TID 0000.0001) %MON time_tsnumber                =                    30
(PID.TID 0000.0001) %MON time_secondsf                =   1.5000000000000E+04
(PID.TID 0000.0001) %MON dynstat_eta_max              =   1.1618370347584E-04
(PID.TID 0000.0001) %MON dynstat_eta_min              =  -8.2225295575291E-06
(PID.TID 0000.0001) %MON dynstat_eta_mean             =   1.4272403006512E-16
(PID.TID 0000.0001) %MON dynstat_eta_sd               =   2.5955561265356E-05
(PID.TID 0000.0001) %MON dynstat_eta_del2             =   8.4551754096054E-07
(PID.TID 0000.0001) %MON dynstat_uvel_max             =   2.2859842249557E-02
(PID.TID 0000.0001) %MON dynstat_uvel_min             =  -2.3409630150852E-02
(PID.TID 0000.0001) %MON dynstat_uvel_mean            =  -2.1561037913709E-08
(PID.TID 0000.0001) %MON dynstat_uvel_sd              =   5.1630069869395E-03
(PID.TID 0000.0001) %MON dynstat_uvel_del2            =   5.3526636088104E-05
(PID.TID 0000.0001) %MON dynstat_vvel_max             =   0.0000000000000E+00
(PID.TID 0000.0001) %MON dynstat_vvel_min             =   0.0000000000000E+00
(PID.TID 0000.0001) %MON dynstat_vvel_mean            =   0.0000000000000E+00
(PID.TID 0000.0001) %MON dynstat_vvel_sd              =   0.0000000000000E+00
(PID.TID 0000.0001) %MON dynstat_vvel_del2            =   0.0000000000000E+00
(PID.TID 0000.0001) %MON dynstat_wvel_max             =   9.1219350652404E-04
(PID.TID 0000.0001) %MON dynstat_wvel_min             =  -2.4924089906653E-03
(PID.TID 0000.0001) %MON dynstat_wvel_mean            =  -1.3030111433690E-04
(PID.TID 0000.0001) %MON dynstat_wvel_sd              =   4.8664070451434E-04
(PID.TID 0000.0001) %MON dynstat_wvel_del2            =   1.8821208980121E-05
(PID.TID 0000.0001) %MON dynstat_theta_max            =   4.8952830255352E-02
(PID.TID 0000.0001) %MON dynstat_theta_min            =  -4.7707633110511E-02
(PID.TID 0000.0001) %MON dynstat_theta_mean           =   1.5270761767664E-02
(PID.TID 0000.0001) %MON dynstat_theta_sd             =   2.7207968078417E-02
(PID.TID 0000.0001) %MON dynstat_theta_del2           =   2.6892096655557E-05
(PID.TID 0000.0001) %MON dynstat_salt_max             =   3.5000000000000E+01
(PID.TID 0000.0001) %MON dynstat_salt_min             =   3.5000000000000E+01
(PID.TID 0000.0001) %MON dynstat_salt_mean            =   3.5000000000000E+01
(PID.TID 0000.0001) %MON dynstat_salt_sd              =   3.4816594052245E-13
(PID.TID 0000.0001) %MON dynstat_salt_del2            =   2.6218552499998E-01
(PID.TID 0000.0001) %MON advcfl_uvel_max              =   5.3683738315865E-02
(PID.TID 0000.0001) %MON advcfl_vvel_max              =   0.0000000000000E+00
(PID.TID 0000.0001) %MON advcfl_wvel_max              =   1.2462044953327E-01
(PID.TID 0000.0001) %MON advcfl_W_hf_max              =   1.2462044953327E-01
(PID.TID 0000.0001) %MON pe_b_mean                    =   3.2642744887043E-11
(PID.TID 0000.0001) %MON ke_max                       =   2.5039958615268E-04
(PID.TID 0000.0001) %MON ke_mean                      =   1.1637294278262E-05
(PID.TID 0000.0001) %MON ke_vol                       =   6.4007813759742E+09
(PID.TID 0000.0001) %MON vort_r_min                   =   0.0000000000000E+00
(PID.TID 0000.0001) %MON vort_r_max                   =   0.0000000000000E+00
(PID.TID 0000.0001) %MON vort_a_mean                  =   0.0000000000000E+00
(PID.TID 0000.0001) %MON vort_a_sd                    =   0.0000000000000E+00
(PID.TID 0000.0001) %MON vort_p_mean                  =   0.0000000000000E+00
(PID.TID 0000.0001) %MON vort_p_sd                    =   0.0000000000000E+00
(PID.TID 0000.0001) %MON surfExpan_theta_mean         =  -1.1887718773470E-12
(PID.TID 0000.0001) %MON surfExpan_salt_mean          =   4.6655014136018E-19
(PID.TID 0000.0001) // =======================================================
(PID.TID 0000.0001) // End MONITOR dynamic field statistics
(PID.TID 0000.0001) // =======================================================
(PID.TID 0000.0001) // =======================================================
(PID.TID 0000.0001) // Begin OBCS MONITOR field statistics
(PID.TID 0000.0001) // =======================================================
(PID.TID 0000.0001) %MON obc_W_uVel_max               =   1.9867117666146E-02
(PID.TID 0000.0001) %MON obc_W_uVel_min               =  -1.9867117666146E-02
(PID.TID 0000.0001) %MON obc_W_uVel_mean              =   9.0949470177293E-19
(PID.TID 0000.0001) %MON obc_W_uVel_sd                =   1.4091613365531E-02
(PID.TID 0000.0001) %MON obc_W_uVel_Int               =   9.0949470177293E-13
(PID.TID 0000.0001) // =======================================================
(PID.TID 0000.0001) // End OBCS MONITOR field statistics
(PID.TID 0000.0001) // =======================================================
 cg2d: Sum(rhs),rhsMax =  -1.07610535066138E-13  3.02827378739912E-04
 cg2d: Sum(rhs),rhsMax =  -1.07609017183097E-13  3.20759636691828E-04
 cg2d: Sum(rhs),rhsMax =  -1.01486527515071E-13  3.36148975384130E-04
 cg2d: Sum(rhs),rhsMax =  -1.12915102615241E-13  3.33795585548163E-04
 cg2d: Sum(rhs),rhsMax =  -1.15819029714026E-13  3.32385001083267E-04
(PID.TID 0000.0001)                    cg2d_init_res =    2.32618871582944E-01
(PID.TID 0000.0001)                       cg2d_iters =    58
(PID.TID 0000.0001)                         cg2d_res =    1.47179163259183E-18
(PID.TID 0000.0001) // =======================================================
(PID.TID 0000.0001) // Begin MONITOR dynamic field statistics
(PID.TID 0000.0001) // =======================================================
(PID.TID 0000.0001) %MON time_tsnumber                =                    35
(PID.TID 0000.0001) %MON time_secondsf                =   1.7500000000000E+04
(PID.TID 0000.0001) %MON dynstat_eta_max              =   1.1190350897448E-04
(PID.TID 0000.0001) %MON dynstat_eta_min              =  -9.5174486562162E-06
(PID.TID 0000.0001) %MON dynstat_eta_mean             =   1.7479392860093E-16
(PID.TID 0000.0001) %MON dynstat_eta_sd               =   2.7655617917811E-05
(PID.TID 0000.0001) %MON dynstat_eta_del2             =   8.5925552759291E-07
(PID.TID 0000.0001) %MON dynstat_uvel_max             =   2.2938735980025E-02
(PID.TID 0000.0001) %MON dynstat_uvel_min             =  -2.3466469154775E-02
(PID.TID 0000.0001) %MON dynstat_uvel_mean            =  -4.3528093604506E-08
(PID.TID 0000.0001) %MON dynstat_uvel_sd              =   5.3479200153616E-03
(PID.TID 0000.0001) %MON dynstat_uvel_del2            =   5.6905586289131E-05
(PID.TID 0000.0001) %MON dynstat_vvel_max             =   0.0000000000000E+00
(PID.TID 0000.0001) %MON dynstat_vvel_min             =   0.0000000000000E+00
(PID.TID 0000.0001) %MON dynstat_vvel_mean            =   0.0000000000000E+00
(PID.TID 0000.0001) %MON dynstat_vvel_sd              =   0.0000000000000E+00
(PID.TID 0000.0001) %MON dynstat_vvel_del2            =   0.0000000000000E+00
(PID.TID 0000.0001) %MON dynstat_wvel_max             =   1.9195803161310E-03
(PID.TID 0000.0001) %MON dynstat_wvel_min             =  -2.7143343066952E-03
(PID.TID 0000.0001) %MON dynstat_wvel_mean            =  -9.5086520715397E-05
(PID.TID 0000.0001) %MON dynstat_wvel_sd              =   5.4580497998678E-04
(PID.TID 0000.0001) %MON dynstat_wvel_del2            =   2.1712978684553E-05
(PID.TID 0000.0001) %MON dynstat_theta_max            =   4.8835346377836E-02
(PID.TID 0000.0001) %MON dynstat_theta_min            =  -4.7597395643946E-02
(PID.TID 0000.0001) %MON dynstat_theta_mean           =   1.5410537947346E-02
(PID.TID 0000.0001) %MON dynstat_theta_sd             =   2.7128512283718E-02
(PID.TID 0000.0001) %MON dynstat_theta_del2           =   2.8956120411678E-05
(PID.TID 0000.0001) %MON dynstat_salt_max             =   3.5000000000000E+01
(PID.TID 0000.0001) %MON dynstat_salt_min             =   3.5000000000000E+01
(PID.TID 0000.0001) %MON dynstat_salt_mean            =   3.5000000000000E+01
(PID.TID 0000.0001) %MON dynstat_salt_sd              =   3.4816594052245E-13
(PID.TID 0000.0001) %MON dynstat_salt_del2            =   2.6218552499998E-01
(PID.TID 0000.0001) %MON advcfl_uvel_max              =   5.3814083400049E-02
(PID.TID 0000.0001) %MON advcfl_vvel_max              =   0.0000000000000E+00
(PID.TID 0000.0001) %MON advcfl_wvel_max              =   1.3571671533476E-01
(PID.TID 0000.0001) %MON advcfl_W_hf_max              =   1.3571671533476E-01
(PID.TID 0000.0001) %MON pe_b_mean                    =   3.7058902606621E-11
(PID.TID 0000.0001) %MON ke_max                       =   2.5041531928340E-04
(PID.TID 0000.0001) %MON ke_mean                      =   1.3399606864821E-05
(PID.TID 0000.0001) %MON ke_vol                       =   6.4007813759742E+09
(PID.TID 0000.0001) %MON vort_r_min                   =   0.0000000000000E+00
(PID.TID 0000.0001) %MON vort_r_max                   =   0.0000000000000E+00
(PID.TID 0000.0001) %MON vort_a_mean                  =   0.0000000000000E+00
(PID.TID 0000.0001) %MON vort_a_sd                    =   0.0000000000000E+00
(PID.TID 0000.0001) %MON vort_p_mean                  =   0.0000000000000E+00
(PID.TID 0000.0001) %MON vort_p_sd                    =   0.0000000000000E+00
(PID.TID 0000.0001) %MON surfExpan_theta_mean         =   2.8996808634623E-13
(PID.TID 0000.0001) %MON surfExpan_salt_mean          =   1.2357933649118E-19
(PID.TID 0000.0001) // =======================================================
(PID.TID 0000.0001) // End MONITOR dynamic field statistics
(PID.TID 0000.0001) // =======================================================
(PID.TID 0000.0001) // =======================================================
(PID.TID 0000.0001) // Begin OBCS MONITOR field statistics
(PID.TID 0000.0001) // =======================================================
(PID.TID 0000.0001) %MON obc_W_uVel_max               =   1.4497919723333E-02
(PID.TID 0000.0001) %MON obc_W_uVel_min               =  -1.4497919723333E-02
(PID.TID 0000.0001) %MON obc_W_uVel_mean              =   5.6843418860808E-19
(PID.TID 0000.0001) %MON obc_W_uVel_sd                =   1.0283277261394E-02
(PID.TID 0000.0001) %MON obc_W_uVel_Int               =   5.6843418860808E-13
(PID.TID 0000.0001) // =======================================================
(PID.TID 0000.0001) // End OBCS MONITOR field statistics
(PID.TID 0000.0001) // =======================================================
 cg2d: Sum(rhs),rhsMax =  -1.25645370843697E-13  3.14858751314261E-04
 cg2d: Sum(rhs),rhsMax =  -1.37075680667342E-13  3.02967163377536E-04
 cg2d: Sum(rhs),rhsMax =  -1.44279770422640E-13  2.77247781418237E-04
 cg2d: Sum(rhs),rhsMax =  -1.34139010662948E-13  2.98699603131583E-04
 cg2d: Sum(rhs),rhsMax =  -1.15968866454264E-13  3.37198187518100E-04
(PID.TID 0000.0001)                    cg2d_init_res =    2.57246557124572E-01
(PID.TID 0000.0001)                       cg2d_iters =    58
(PID.TID 0000.0001)                         cg2d_res =    2.34203676358148E-19
(PID.TID 0000.0001) // =======================================================
(PID.TID 0000.0001) // Begin MONITOR dynamic field statistics
(PID.TID 0000.0001) // =======================================================
(PID.TID 0000.0001) %MON time_tsnumber                =                    40
(PID.TID 0000.0001) %MON time_secondsf                =   2.0000000000000E+04
(PID.TID 0000.0001) %MON dynstat_eta_max              =   1.1386349225105E-04
(PID.TID 0000.0001) %MON dynstat_eta_min              =  -1.0236255186123E-05
(PID.TID 0000.0001) %MON dynstat_eta_mean             =   1.7245364805473E-16
(PID.TID 0000.0001) %MON dynstat_eta_sd               =   2.8217348955288E-05
(PID.TID 0000.0001) %MON dynstat_eta_del2             =   9.1846244246454E-07
(PID.TID 0000.0001) %MON dynstat_uvel_max             =   2.2602631979400E-02
(PID.TID 0000.0001) %MON dynstat_uvel_min             =  -2.2891226905557E-02
(PID.TID 0000.0001) %MON dynstat_uvel_mean            =   8.6150177259627E-09
(PID.TID 0000.0001) %MON dynstat_uvel_sd              =   5.3663799857227E-03
(PID.TID 0000.0001) %MON dynstat_uvel_del2            =   5.9266323359589E-05
(PID.TID 0000.0001) %MON dynstat_vvel_max             =   0.0000000000000E+00
(PID.TID 0000.0001) %MON dynstat_vvel_min             =   0.0000000000000E+00
(PID.TID 0000.0001) %MON dynstat_vvel_mean            =   0.0000000000000E+00
(PID.TID 0000.0001) %MON dynstat_vvel_sd              =   0.0000000000000E+00
(PID.TID 0000.0001) %MON dynstat_vvel_del2            =   0.0000000000000E+00
(PID.TID 0000.0001) %MON dynstat_wvel_max             =   2.7507964845167E-03
(PID.TID 0000.0001) %MON dynstat_wvel_min             =  -2.6422174397399E-03
(PID.TID 0000.0001) %MON dynstat_wvel_mean            =  -4.8181473775694E-05
(PID.TID 0000.0001) %MON dynstat_wvel_sd              =   6.3744203677417E-04
(PID.TID 0000.0001) %MON dynstat_wvel_del2            =   2.4812407031184E-05
(PID.TID 0000.0001) %MON dynstat_theta_max            =   4.8600778245611E-02
(PID.TID 0000.0001) %MON dynstat_theta_min            =  -4.7489047970514E-02
(PID.TID 0000.0001) %MON dynstat_theta_mean           =   1.5498867003794E-02
(PID.TID 0000.0001) %MON dynstat_theta_sd             =   2.7066688467316E-02
(PID.TID 0000.0001) %MON dynstat_theta_del2           =   3.1180236229565E-05
(PID.TID 0000.0001) %MON dynstat_salt_max             =   3.5000000000000E+01
(PID.TID 0000.0001) %MON dynstat_salt_min             =   3.5000000000000E+01
(PID.TID 0000.0001) %MON dynstat_salt_mean            =   3.5000000000000E+01
(PID.TID 0000.0001) %MON dynstat_salt_sd              =   3.4816594052245E-13
(PID.TID 0000.0001) %MON dynstat_salt_del2            =   2.6218552499998E-01
(PID.TID 0000.0001) %MON advcfl_uvel_max              =   5.2494918843571E-02
(PID.TID 0000.0001) %MON advcfl_vvel_max              =   0.0000000000000E+00
(PID.TID 0000.0001) %MON advcfl_wvel_max              =   1.3753982422583E-01
(PID.TID 0000.0001) %MON advcfl_W_hf_max              =   1.3753982422583E-01
(PID.TID 0000.0001) %MON pe_b_mean                    =   3.8579646130532E-11
(PID.TID 0000.0001) %MON ke_max                       =   2.5520019847848E-04
(PID.TID 0000.0001) %MON ke_mean                      =   1.4167802650513E-05
(PID.TID 0000.0001) %MON ke_vol                       =   6.4007813759742E+09
(PID.TID 0000.0001) %MON vort_r_min                   =   0.0000000000000E+00
(PID.TID 0000.0001) %MON vort_r_max                   =   0.0000000000000E+00
(PID.TID 0000.0001) %MON vort_a_mean                  =   0.0000000000000E+00
(PID.TID 0000.0001) %MON vort_a_sd                    =   0.0000000000000E+00
(PID.TID 0000.0001) %MON vort_p_mean                  =   0.0000000000000E+00
(PID.TID 0000.0001) %MON vort_p_sd                    =   0.0000000000000E+00
(PID.TID 0000.0001) %MON surfExpan_theta_mean         =   6.6318380740023E-13
(PID.TID 0000.0001) %MON surfExpan_salt_mean          =  -3.0180988351201E-19
(PID.TID 0000.0001) // =======================================================
(PID.TID 0000.0001) // End MONITOR dynamic field statistics
(PID.TID 0000.0001) // =======================================================
(PID.TID 0000.0001) // =======================================================
(PID.TID 0000.0001) // Begin OBCS MONITOR field statistics
(PID.TID 0000.0001) // =======================================================
(PID.TID 0000.0001) %MON obc_W_uVel_max               =   7.3462687844333E-03
(PID.TID 0000.0001) %MON obc_W_uVel_min               =  -7.3462687844333E-03
(PID.TID 0000.0001) %MON obc_W_uVel_mean              =  -5.6843418860808E-20
(PID.TID 0000.0001) %MON obc_W_uVel_sd                =   5.2106591972273E-03
(PID.TID 0000.0001) %MON obc_W_uVel_Int               =  -5.6843418860808E-14
(PID.TID 0000.0001) // =======================================================
(PID.TID 0000.0001) // End OBCS MONITOR field statistics
(PID.TID 0000.0001) // =======================================================
 cg2d: Sum(rhs),rhsMax =  -1.03385399199962E-13  3.68523900934124E-04
 cg2d: Sum(rhs),rhsMax =  -9.92305196345633E-14  4.17467651577994E-04
 cg2d: Sum(rhs),rhsMax =  -9.39498045332554E-14  4.51345116113547E-04
 cg2d: Sum(rhs),rhsMax =  -8.95255007279938E-14  4.97944016225760E-04
 cg2d: Sum(rhs),rhsMax =  -8.10261146372282E-14  5.32005914718356E-04
(PID.TID 0000.0001)                    cg2d_init_res =    1.31550555885921E-01
(PID.TID 0000.0001)                       cg2d_iters =    58
(PID.TID 0000.0001)                         cg2d_res =    3.80131466619933E-19
(PID.TID 0000.0001) // =======================================================
(PID.TID 0000.0001) // Begin MONITOR dynamic field statistics
(PID.TID 0000.0001) // =======================================================
(PID.TID 0000.0001) %MON time_tsnumber                =                    45
(PID.TID 0000.0001) %MON time_secondsf                =   2.2500000000000E+04
(PID.TID 0000.0001) %MON dynstat_eta_max              =   1.1430060807843E-04
(PID.TID 0000.0001) %MON dynstat_eta_min              =  -1.0939282251534E-05
(PID.TID 0000.0001) %MON dynstat_eta_mean             =   1.9892816163374E-16
(PID.TID 0000.0001) %MON dynstat_eta_sd               =   2.8017701747196E-05
(PID.TID 0000.0001) %MON dynstat_eta_del2             =   9.9115466367927E-07
(PID.TID 0000.0001) %MON dynstat_uvel_max             =   2.2698461696016E-02
(PID.TID 0000.0001) %MON dynstat_uvel_min             =  -2.3007469605347E-02
(PID.TID 0000.0001) %MON dynstat_uvel_mean            =  -1.2722378061385E-09
(PID.TID 0000.0001) %MON dynstat_uvel_sd              =   5.3478919999015E-03
(PID.TID 0000.0001) %MON dynstat_uvel_del2            =   5.9422531352612E-05
(PID.TID 0000.0001) %MON dynstat_vvel_max             =   0.0000000000000E+00
(PID.TID 0000.0001) %MON dynstat_vvel_min             =   0.0000000000000E+00
(PID.TID 0000.0001) %MON dynstat_vvel_mean            =   0.0000000000000E+00
(PID.TID 0000.0001) %MON dynstat_vvel_sd              =   0.0000000000000E+00
(PID.TID 0000.0001) %MON dynstat_vvel_del2            =   0.0000000000000E+00
(PID.TID 0000.0001) %MON dynstat_wvel_max             =   3.1969869869516E-03
(PID.TID 0000.0001) %MON dynstat_wvel_min             =  -2.3897546631818E-03
(PID.TID 0000.0001) %MON dynstat_wvel_mean            =   4.6472652471659E-06
(PID.TID 0000.0001) %MON dynstat_wvel_sd              =   7.3386985705062E-04
(PID.TID 0000.0001) %MON dynstat_wvel_del2            =   2.4815346999234E-05
(PID.TID 0000.0001) %MON dynstat_theta_max            =   4.8415755644265E-02
(PID.TID 0000.0001) %MON dynstat_theta_min            =  -4.7380116636240E-02
(PID.TID 0000.0001) %MON dynstat_theta_mean           =   1.5524746064222E-02
(PID.TID 0000.0001) %MON dynstat_theta_sd             =   2.7032650474406E-02
(PID.TID 0000.0001) %MON dynstat_theta_del2           =   3.3397808373808E-05
(PID.TID 0000.0001) %MON dynstat_salt_max             =   3.5000000000000E+01
(PID.TID 0000.0001) %MON dynstat_salt_min             =   3.5000000000000E+01
(PID.TID 0000.0001) %MON dynstat_salt_mean            =   3.5000000000000E+01
(PID.TID 0000.0001) %MON dynstat_salt_sd              =   3.4816594052245E-13
(PID.TID 0000.0001) %MON dynstat_salt_del2            =   2.6218552499998E-01
(PID.TID 0000.0001) %MON advcfl_uvel_max              =   5.2761490448352E-02
(PID.TID 0000.0001) %MON advcfl_vvel_max              =   0.0000000000000E+00
(PID.TID 0000.0001) %MON advcfl_wvel_max              =   1.5984934934758E-01
(PID.TID 0000.0001) %MON advcfl_W_hf_max              =   1.5984934934758E-01
(PID.TID 0000.0001) %MON pe_b_mean                    =   3.8035649569594E-11
(PID.TID 0000.0001) %MON ke_max                       =   2.4859377628726E-04
(PID.TID 0000.0001) %MON ke_mean                      =   1.4297823039309E-05
(PID.TID 0000.0001) %MON ke_vol                       =   6.4007813759742E+09
(PID.TID 0000.0001) %MON vort_r_min                   =   0.0000000000000E+00
(PID.TID 0000.0001) %MON vort_r_max                   =   0.0000000000000E+00
(PID.TID 0000.0001) %MON vort_a_mean                  =   0.0000000000000E+00
(PID.TID 0000.0001) %MON vort_a_sd                    =   0.0000000000000E+00
(PID.TID 0000.0001) %MON vort_p_mean                  =   0.0000000000000E+00
(PID.TID 0000.0001) %MON vort_p_sd                    =   0.0000000000000E+00
(PID.TID 0000.0001) %MON surfExpan_theta_mean         =  -1.8682577816405E-12
(PID.TID 0000.0001) %MON surfExpan_salt_mean          =   2.8494307135626E-19
(PID.TID 0000.0001) // =======================================================
(PID.TID 0000.0001) // End MONITOR dynamic field statistics
(PID.TID 0000.0001) // =======================================================
(PID.TID 0000.0001) // =======================================================
(PID.TID 0000.0001) // Begin OBCS MONITOR field statistics
(PID.TID 0000.0001) // =======================================================
(PID.TID 0000.0001) %MON obc_W_uVel_max               =   7.0857234000714E-04
(PID.TID 0000.0001) %MON obc_W_uVel_min               =  -7.0857234000714E-04
(PID.TID 0000.0001) %MON obc_W_uVel_mean              =   7.1054273576010E-21
(PID.TID 0000.0001) %MON obc_W_uVel_sd                =   5.0258561028732E-04
(PID.TID 0000.0001) %MON obc_W_uVel_Int               =   7.1054273576010E-15
(PID.TID 0000.0001) // =======================================================
(PID.TID 0000.0001) // End OBCS MONITOR field statistics
(PID.TID 0000.0001) // =======================================================
 cg2d: Sum(rhs),rhsMax =  -7.84960204475160E-14  5.73912075749299E-04
 cg2d: Sum(rhs),rhsMax =  -7.24030210785820E-14  6.05876331592073E-04
 cg2d: Sum(rhs),rhsMax =  -6.88222265635141E-14  6.40987869754315E-04
 cg2d: Sum(rhs),rhsMax =  -7.03744517088073E-14  6.68935444534182E-04
 cg2d: Sum(rhs),rhsMax =  -6.85507423395237E-14  6.95630597716671E-04
(PID.TID 0000.0001)                    cg2d_init_res =    9.14631643989830E-02
(PID.TID 0000.0001)                       cg2d_iters =    58
(PID.TID 0000.0001)                         cg2d_res =    1.11476494042880E-19
(PID.TID 0000.0001) // =======================================================
(PID.TID 0000.0001) // Begin MONITOR dynamic field statistics
(PID.TID 0000.0001) // =======================================================
(PID.TID 0000.0001) %MON time_tsnumber                =                    50
(PID.TID 0000.0001) %MON time_secondsf                =   2.5000000000000E+04
(PID.TID 0000.0001) %MON dynstat_eta_max              =   1.1075926886356E-04
(PID.TID 0000.0001) %MON dynstat_eta_min              =  -3.0627887798540E-05
(PID.TID 0000.0001) %MON dynstat_eta_mean             =   2.1355815145266E-16
(PID.TID 0000.0001) %MON dynstat_eta_sd               =   2.7982594379202E-05
(PID.TID 0000.0001) %MON dynstat_eta_del2             =   1.0293299275852E-06
(PID.TID 0000.0001) %MON dynstat_uvel_max             =   2.3069175744284E-02
(PID.TID 0000.0001) %MON dynstat_uvel_min             =  -2.3311909522623E-02
(PID.TID 0000.0001) %MON dynstat_uvel_mean            =   4.2985997899965E-08
(PID.TID 0000.0001) %MON dynstat_uvel_sd              =   5.4425577494116E-03
(PID.TID 0000.0001) %MON dynstat_uvel_del2            =   5.8770741257613E-05
(PID.TID 0000.0001) %MON dynstat_vvel_max             =   0.0000000000000E+00
(PID.TID 0000.0001) %MON dynstat_vvel_min             =   0.0000000000000E+00
(PID.TID 0000.0001) %MON dynstat_vvel_mean            =   0.0000000000000E+00
(PID.TID 0000.0001) %MON dynstat_vvel_sd              =   0.0000000000000E+00
(PID.TID 0000.0001) %MON dynstat_vvel_del2            =   0.0000000000000E+00
(PID.TID 0000.0001) %MON dynstat_wvel_max             =   3.2066299036331E-03
(PID.TID 0000.0001) %MON dynstat_wvel_min             =  -2.5033963967676E-03
(PID.TID 0000.0001) %MON dynstat_wvel_mean            =   5.6904644238967E-05
(PID.TID 0000.0001) %MON dynstat_wvel_sd              =   8.1393820476692E-04
(PID.TID 0000.0001) %MON dynstat_wvel_del2            =   2.2231209534826E-05
(PID.TID 0000.0001) %MON dynstat_theta_max            =   4.8272091849416E-02
(PID.TID 0000.0001) %MON dynstat_theta_min            =  -4.7265111762852E-02
(PID.TID 0000.0001) %MON dynstat_theta_mean           =   1.5485062305358E-02
(PID.TID 0000.0001) %MON dynstat_theta_sd             =   2.7035442242468E-02
(PID.TID 0000.0001) %MON dynstat_theta_del2           =   3.4440991640312E-05
(PID.TID 0000.0001) %MON dynstat_salt_max             =   3.5000000000000E+01
(PID.TID 0000.0001) %MON dynstat_salt_min             =   3.5000000000000E+01
(PID.TID 0000.0001) %MON dynstat_salt_mean            =   3.5000000000000E+01
(PID.TID 0000.0001) %MON dynstat_salt_sd              =   3.5527136788005E-13
(PID.TID 0000.0001) %MON dynstat_salt_del2            =   2.6218552499998E-01
(PID.TID 0000.0001) %MON advcfl_uvel_max              =   5.3459642138347E-02
(PID.TID 0000.0001) %MON advcfl_vvel_max              =   0.0000000000000E+00
(PID.TID 0000.0001) %MON advcfl_wvel_max              =   1.6033149518165E-01
(PID.TID 0000.0001) %MON advcfl_W_hf_max              =   1.6033149518165E-01
(PID.TID 0000.0001) %MON pe_b_mean                    =   3.7940388727369E-11
(PID.TID 0000.0001) %MON ke_max                       =   2.3754613610518E-04
(PID.TID 0000.0001) %MON ke_mean                      =   1.4488202385099E-05
(PID.TID 0000.0001) %MON ke_vol                       =   6.4007813759742E+09
(PID.TID 0000.0001) %MON vort_r_min                   =   0.0000000000000E+00
(PID.TID 0000.0001) %MON vort_r_max                   =   0.0000000000000E+00
(PID.TID 0000.0001) %MON vort_a_mean                  =   0.0000000000000E+00
(PID.TID 0000.0001) %MON vort_a_sd                    =   0.0000000000000E+00
(PID.TID 0000.0001) %MON vort_p_mean                  =   0.0000000000000E+00
(PID.TID 0000.0001) %MON vort_p_sd                    =   0.0000000000000E+00
(PID.TID 0000.0001) %MON surfExpan_theta_mean         =   8.9396696143491E-13
(PID.TID 0000.0001) %MON surfExpan_salt_mean          =  -3.0111280622429E-20
(PID.TID 0000.0001) // =======================================================
(PID.TID 0000.0001) // End MONITOR dynamic field statistics
(PID.TID 0000.0001) // =======================================================
(PID.TID 0000.0001) // =======================================================
(PID.TID 0000.0001) // Begin OBCS MONITOR field statistics
(PID.TID 0000.0001) // =======================================================
(PID.TID 0000.0001) %MON obc_W_uVel_max               =   8.6762977323638E-03
(PID.TID 0000.0001) %MON obc_W_uVel_min               =  -8.6762977323638E-03
(PID.TID 0000.0001) %MON obc_W_uVel_mean              =  -3.9790393202566E-19
(PID.TID 0000.0001) %MON obc_W_uVel_sd                =   6.1540398130847E-03
(PID.TID 0000.0001) %MON obc_W_uVel_Int               =  -3.9790393202566E-13
(PID.TID 0000.0001) // =======================================================
(PID.TID 0000.0001) // End OBCS MONITOR field statistics
(PID.TID 0000.0001) // =======================================================
 cg2d: Sum(rhs),rhsMax =  -6.42638611596247E-14  7.18169737093781E-04
 cg2d: Sum(rhs),rhsMax =  -5.66169290269758E-14  7.35378536780823E-04
 cg2d: Sum(rhs),rhsMax =  -5.97171238240352E-14  7.51633341474709E-04
 cg2d: Sum(rhs),rhsMax =  -5.84583379967252E-14  7.58766710276690E-04
 cg2d: Sum(rhs),rhsMax =  -5.88676514218928E-14  7.68228754660857E-04
(PID.TID 0000.0001)                    cg2d_init_res =    8.35386901546040E-02
(PID.TID 0000.0001)                       cg2d_iters =    58
(PID.TID 0000.0001)                         cg2d_res =    9.41677111038160E-19
(PID.TID 0000.0001) // =======================================================
(PID.TID 0000.0001) // Begin MONITOR dynamic field statistics
(PID.TID 0000.0001) // =======================================================
(PID.TID 0000.0001) %MON time_tsnumber                =                    55
(PID.TID 0000.0001) %MON time_secondsf                =   2.7500000000000E+04
(PID.TID 0000.0001) %MON dynstat_eta_max              =   1.1441458689492E-04
(PID.TID 0000.0001) %MON dynstat_eta_min              =  -8.7092581607228E-05
(PID.TID 0000.0001) %MON dynstat_eta_mean             =   1.9814926678693E-16
(PID.TID 0000.0001) %MON dynstat_eta_sd               =   2.9963983172895E-05
(PID.TID 0000.0001) %MON dynstat_eta_del2             =   1.0283290649043E-06
(PID.TID 0000.0001) %MON dynstat_uvel_max             =   2.2778050975816E-02
(PID.TID 0000.0001) %MON dynstat_uvel_min             =  -2.2956020397019E-02
(PID.TID 0000.0001) %MON dynstat_uvel_mean            =   3.4410369139971E-08
(PID.TID 0000.0001) %MON dynstat_uvel_sd              =   5.7330695561900E-03
(PID.TID 0000.0001) %MON dynstat_uvel_del2            =   5.8430031118966E-05
(PID.TID 0000.0001) %MON dynstat_vvel_max             =   0.0000000000000E+00
(PID.TID 0000.0001) %MON dynstat_vvel_min             =   0.0000000000000E+00
(PID.TID 0000.0001) %MON dynstat_vvel_mean            =   0.0000000000000E+00
(PID.TID 0000.0001) %MON dynstat_vvel_sd              =   0.0000000000000E+00
(PID.TID 0000.0001) %MON dynstat_vvel_del2            =   0.0000000000000E+00
(PID.TID 0000.0001) %MON dynstat_wvel_max             =   3.2919569190218E-03
(PID.TID 0000.0001) %MON dynstat_wvel_min             =  -2.4961577119037E-03
(PID.TID 0000.0001) %MON dynstat_wvel_mean            =   1.0216585719105E-04
(PID.TID 0000.0001) %MON dynstat_wvel_sd              =   8.6528431725258E-04
(PID.TID 0000.0001) %MON dynstat_wvel_del2            =   1.8702877618271E-05
(PID.TID 0000.0001) %MON dynstat_theta_max            =   4.8133584010659E-02
(PID.TID 0000.0001) %MON dynstat_theta_min            =  -4.7151015807648E-02
(PID.TID 0000.0001) %MON dynstat_theta_mean           =   1.5384960184041E-02
(PID.TID 0000.0001) %MON dynstat_theta_sd             =   2.7079142846087E-02
(PID.TID 0000.0001) %MON dynstat_theta_del2           =   3.4565207457646E-05
(PID.TID 0000.0001) %MON dynstat_salt_max             =   3.5000000000000E+01
(PID.TID 0000.0001) %MON dynstat_salt_min             =   3.5000000000000E+01
(PID.TID 0000.0001) %MON dynstat_salt_mean            =   3.5000000000000E+01
(PID.TID 0000.0001) %MON dynstat_salt_sd              =   3.4816594052245E-13
(PID.TID 0000.0001) %MON dynstat_salt_del2            =   2.6218552499998E-01
(PID.TID 0000.0001) %MON advcfl_uvel_max              =   5.2643505421735E-02
(PID.TID 0000.0001) %MON advcfl_vvel_max              =   0.0000000000000E+00
(PID.TID 0000.0001) %MON advcfl_wvel_max              =   1.6459784595109E-01
(PID.TID 0000.0001) %MON advcfl_W_hf_max              =   1.6459784595109E-01
(PID.TID 0000.0001) %MON pe_b_mean                    =   4.3503571326178E-11
(PID.TID 0000.0001) %MON ke_max                       =   2.4694490023704E-04
(PID.TID 0000.0001) %MON ke_mean                      =   1.5394444643155E-05
(PID.TID 0000.0001) %MON ke_vol                       =   6.4007813759742E+09
(PID.TID 0000.0001) %MON vort_r_min                   =   0.0000000000000E+00
(PID.TID 0000.0001) %MON vort_r_max                   =   0.0000000000000E+00
(PID.TID 0000.0001) %MON vort_a_mean                  =   0.0000000000000E+00
(PID.TID 0000.0001) %MON vort_a_sd                    =   0.0000000000000E+00
(PID.TID 0000.0001) %MON vort_p_mean                  =   0.0000000000000E+00
(PID.TID 0000.0001) %MON vort_p_sd                    =   0.0000000000000E+00
(PID.TID 0000.0001) %MON surfExpan_theta_mean         =  -1.1901436207596E-12
(PID.TID 0000.0001) %MON surfExpan_salt_mean          =  -1.2109970791254E-18
(PID.TID 0000.0001) // =======================================================
(PID.TID 0000.0001) // End MONITOR dynamic field statistics
(PID.TID 0000.0001) // =======================================================
(PID.TID 0000.0001) // =======================================================
(PID.TID 0000.0001) // Begin OBCS MONITOR field statistics
(PID.TID 0000.0001) // =======================================================
(PID.TID 0000.0001) %MON obc_W_uVel_max               =   1.5577311956283E-02
(PID.TID 0000.0001) %MON obc_W_uVel_min               =  -1.5577311956283E-02
(PID.TID 0000.0001) %MON obc_W_uVel_mean              =  -1.4779288903810E-18
(PID.TID 0000.0001) %MON obc_W_uVel_sd                =   1.1048882935658E-02
(PID.TID 0000.0001) %MON obc_W_uVel_Int               =  -1.4779288903810E-12
(PID.TID 0000.0001) // =======================================================
(PID.TID 0000.0001) // End OBCS MONITOR field statistics
(PID.TID 0000.0001) // =======================================================
 cg2d: Sum(rhs),rhsMax =  -5.69275800544472E-14  7.64963594640133E-04
 cg2d: Sum(rhs),rhsMax =  -4.96873863668063E-14  7.67275824680358E-04
 cg2d: Sum(rhs),rhsMax =  -4.85151469779149E-14  7.53324583764685E-04
 cg2d: Sum(rhs),rhsMax =  -5.32727074259443E-14  7.48059089568960E-04
 cg2d: Sum(rhs),rhsMax =  -5.55882244531944E-14  7.23025543129405E-04
(PID.TID 0000.0001)                    cg2d_init_res =    1.02215809414260E-01
(PID.TID 0000.0001)                       cg2d_iters =    58
(PID.TID 0000.0001)                         cg2d_res =    9.39055685400311E-19
(PID.TID 0000.0001) // =======================================================
(PID.TID 0000.0001) // Begin MONITOR dynamic field statistics
(PID.TID 0000.0001) // =======================================================
(PID.TID 0000.0001) %MON time_tsnumber                =                    60
(PID.TID 0000.0001) %MON time_secondsf                =   3.0000000000000E+04
(PID.TID 0000.0001) %MON dynstat_eta_max              =   1.1632642428679E-04
(PID.TID 0000.0001) %MON dynstat_eta_min              =  -1.3586796378408E-04
(PID.TID 0000.0001) %MON dynstat_eta_mean             =   1.8183778467636E-16
(PID.TID 0000.0001) %MON dynstat_eta_sd               =   3.3772509007593E-05
(PID.TID 0000.0001) %MON dynstat_eta_del2             =   9.9916004288813E-07
(PID.TID 0000.0001) %MON dynstat_uvel_max             =   2.2418187834276E-02
(PID.TID 0000.0001) %MON dynstat_uvel_min             =  -2.2537756721698E-02
(PID.TID 0000.0001) %MON dynstat_uvel_mean            =   5.2344769685918E-08
(PID.TID 0000.0001) %MON dynstat_uvel_sd              =   6.1833631930257E-03
(PID.TID 0000.0001) %MON dynstat_uvel_del2            =   5.9605816193317E-05
(PID.TID 0000.0001) %MON dynstat_vvel_max             =   0.0000000000000E+00
(PID.TID 0000.0001) %MON dynstat_vvel_min             =   0.0000000000000E+00
(PID.TID 0000.0001) %MON dynstat_vvel_mean            =   0.0000000000000E+00
(PID.TID 0000.0001) %MON dynstat_vvel_sd              =   0.0000000000000E+00
(PID.TID 0000.0001) %MON dynstat_vvel_del2            =   0.0000000000000E+00
(PID.TID 0000.0001) %MON dynstat_wvel_max             =   3.3121616622407E-03
(PID.TID 0000.0001) %MON dynstat_wvel_min             =  -2.3345490885689E-03
(PID.TID 0000.0001) %MON dynstat_wvel_mean            =   1.3486624474727E-04
(PID.TID 0000.0001) %MON dynstat_wvel_sd              =   8.8646605791720E-04
(PID.TID 0000.0001) %MON dynstat_wvel_del2            =   1.5435099617872E-05
(PID.TID 0000.0001) %MON dynstat_theta_max            =   4.8026380564824E-02
(PID.TID 0000.0001) %MON dynstat_theta_min            =  -4.7340383059631E-02
(PID.TID 0000.0001) %MON dynstat_theta_mean           =   1.5236953428822E-02
(PID.TID 0000.0001) %MON dynstat_theta_sd             =   2.7160012410359E-02
(PID.TID 0000.0001) %MON dynstat_theta_del2           =   3.4356875369320E-05
(PID.TID 0000.0001) %MON dynstat_salt_max             =   3.5000000000000E+01
(PID.TID 0000.0001) %MON dynstat_salt_min             =   3.5000000000000E+01
(PID.TID 0000.0001) %MON dynstat_salt_mean            =   3.5000000000000E+01
(PID.TID 0000.0001) %MON dynstat_salt_sd              =   3.4816594052245E-13
(PID.TID 0000.0001) %MON dynstat_salt_del2            =   2.6218552499998E-01
(PID.TID 0000.0001) %MON advcfl_uvel_max              =   5.1684329324194E-02
(PID.TID 0000.0001) %MON advcfl_vvel_max              =   0.0000000000000E+00
(PID.TID 0000.0001) %MON advcfl_wvel_max              =   1.6560808311204E-01
(PID.TID 0000.0001) %MON advcfl_W_hf_max              =   1.6560808311204E-01
(PID.TID 0000.0001) %MON pe_b_mean                    =   5.5265292659289E-11
(PID.TID 0000.0001) %MON ke_max                       =   2.4616953712650E-04
(PID.TID 0000.0001) %MON ke_mean                      =   1.7305397086846E-05
(PID.TID 0000.0001) %MON ke_vol                       =   6.4007813759742E+09
(PID.TID 0000.0001) %MON vort_r_min                   =   0.0000000000000E+00
(PID.TID 0000.0001) %MON vort_r_max                   =   0.0000000000000E+00
(PID.TID 0000.0001) %MON vort_a_mean                  =   0.0000000000000E+00
(PID.TID 0000.0001) %MON vort_a_sd                    =   0.0000000000000E+00
(PID.TID 0000.0001) %MON vort_p_mean                  =   0.0000000000000E+00
(PID.TID 0000.0001) %MON vort_p_sd                    =   0.0000000000000E+00
(PID.TID 0000.0001) %MON surfExpan_theta_mean         =  -1.3572444787812E-13
(PID.TID 0000.0001) %MON surfExpan_salt_mean          =  -1.0531959886351E-18
(PID.TID 0000.0001) // =======================================================
(PID.TID 0000.0001) // End MONITOR dynamic field statistics
(PID.TID 0000.0001) // =======================================================
(PID.TID 0000.0001) // =======================================================
(PID.TID 0000.0001) // Begin OBCS MONITOR field statistics
(PID.TID 0000.0001) // =======================================================
(PID.TID 0000.0001) %MON obc_W_uVel_max               =   2.0563166840289E-02
(PID.TID 0000.0001) %MON obc_W_uVel_min               =  -2.0563166840289E-02
(PID.TID 0000.0001) %MON obc_W_uVel_mean              =  -9.0949470177293E-19
(PID.TID 0000.0001) %MON obc_W_uVel_sd                =   1.4585316378229E-02
(PID.TID 0000.0001) %MON obc_W_uVel_Int               =  -9.0949470177293E-13
(PID.TID 0000.0001) // =======================================================
(PID.TID 0000.0001) // End OBCS MONITOR field statistics
(PID.TID 0000.0001) // =======================================================
 cg2d: Sum(rhs),rhsMax =  -5.44650587651352E-14  7.09609659300106E-04
 cg2d: Sum(rhs),rhsMax =  -5.66541713716007E-14  6.72987932899390E-04
 cg2d: Sum(rhs),rhsMax =  -5.67554900646194E-14  6.50819959303320E-04
 cg2d: Sum(rhs),rhsMax =  -5.05129792160997E-14  6.02205319439585E-04
 cg2d: Sum(rhs),rhsMax =  -5.81128027643540E-14  5.70928815225185E-04
(PID.TID 0000.0001)                    cg2d_init_res =    1.19647975120452E-01
(PID.TID 0000.0001)                       cg2d_iters =    58
(PID.TID 0000.0001)                         cg2d_res =    1.87805000772112E-18
(PID.TID 0000.0001) // =======================================================
(PID.TID 0000.0001) // Begin MONITOR dynamic field statistics
(PID.TID 0000.0001) // =======================================================
(PID.TID 0000.0001) %MON time_tsnumber                =                    65
(PID.TID 0000.0001) %MON time_secondsf                =   3.2500000000000E+04
(PID.TID 0000.0001) %MON dynstat_eta_max              =   1.1530852465514E-04
(PID.TID 0000.0001) %MON dynstat_eta_min              =  -1.7121266900542E-04
(PID.TID 0000.0001) %MON dynstat_eta_mean             =   1.3181338899994E-16
(PID.TID 0000.0001) %MON dynstat_eta_sd               =   3.8922092491233E-05
(PID.TID 0000.0001) %MON dynstat_eta_del2             =   1.0264465130806E-06
(PID.TID 0000.0001) %MON dynstat_uvel_max             =   2.3020874304323E-02
(PID.TID 0000.0001) %MON dynstat_uvel_min             =  -2.3069945832883E-02
(PID.TID 0000.0001) %MON dynstat_uvel_mean            =   6.5816947517946E-08
(PID.TID 0000.0001) %MON dynstat_uvel_sd              =   6.6797157788495E-03
(PID.TID 0000.0001) %MON dynstat_uvel_del2            =   6.2353348308292E-05
(PID.TID 0000.0001) %MON dynstat_vvel_max             =   0.0000000000000E+00
(PID.TID 0000.0001) %MON dynstat_vvel_min             =   0.0000000000000E+00
(PID.TID 0000.0001) %MON dynstat_vvel_mean            =   0.0000000000000E+00
(PID.TID 0000.0001) %MON dynstat_vvel_sd              =   0.0000000000000E+00
(PID.TID 0000.0001) %MON dynstat_vvel_del2            =   0.0000000000000E+00
(PID.TID 0000.0001) %MON dynstat_wvel_max             =   3.1980608125118E-03
(PID.TID 0000.0001) %MON dynstat_wvel_min             =  -2.2985564644147E-03
(PID.TID 0000.0001) %MON dynstat_wvel_mean            =   1.5098544364966E-04
(PID.TID 0000.0001) %MON dynstat_wvel_sd              =   8.8617207941587E-04
(PID.TID 0000.0001) %MON dynstat_wvel_del2            =   1.3375622914178E-05
(PID.TID 0000.0001) %MON dynstat_theta_max            =   4.7914085933823E-02
(PID.TID 0000.0001) %MON dynstat_theta_min            =  -4.7630691493903E-02
(PID.TID 0000.0001) %MON dynstat_theta_mean           =   1.5059207847311E-02
(PID.TID 0000.0001) %MON dynstat_theta_sd             =   2.7266038405911E-02
(PID.TID 0000.0001) %MON dynstat_theta_del2           =   3.4232663016496E-05
(PID.TID 0000.0001) %MON dynstat_salt_max             =   3.5000000000000E+01
(PID.TID 0000.0001) %MON dynstat_salt_min             =   3.5000000000000E+01
(PID.TID 0000.0001) %MON dynstat_salt_mean            =   3.5000000000000E+01
(PID.TID 0000.0001) %MON dynstat_salt_sd              =   3.5527136788005E-13
(PID.TID 0000.0001) %MON dynstat_salt_del2            =   2.6218552499998E-01
(PID.TID 0000.0001) %MON advcfl_uvel_max              =   5.2904763000221E-02
(PID.TID 0000.0001) %MON advcfl_vvel_max              =   0.0000000000000E+00
(PID.TID 0000.0001) %MON advcfl_wvel_max              =   1.5990304062559E-01
(PID.TID 0000.0001) %MON advcfl_W_hf_max              =   1.5990304062559E-01
(PID.TID 0000.0001) %MON pe_b_mean                    =   7.3403739025037E-11
(PID.TID 0000.0001) %MON ke_max                       =   2.3379853932194E-04
(PID.TID 0000.0001) %MON ke_mean                      =   2.0038787117864E-05
(PID.TID 0000.0001) %MON ke_vol                       =   6.4007813759742E+09
(PID.TID 0000.0001) %MON vort_r_min                   =   0.0000000000000E+00
(PID.TID 0000.0001) %MON vort_r_max                   =   0.0000000000000E+00
(PID.TID 0000.0001) %MON vort_a_mean                  =   0.0000000000000E+00
(PID.TID 0000.0001) %MON vort_a_sd                    =   0.0000000000000E+00
(PID.TID 0000.0001) %MON vort_p_mean                  =   0.0000000000000E+00
(PID.TID 0000.0001) %MON vort_p_sd                    =   0.0000000000000E+00
(PID.TID 0000.0001) %MON surfExpan_theta_mean         =   2.6020572625026E-15
(PID.TID 0000.0001) %MON surfExpan_salt_mean          =  -6.9642410698659E-19
(PID.TID 0000.0001) // =======================================================
(PID.TID 0000.0001) // End MONITOR dynamic field statistics
(PID.TID 0000.0001) // =======================================================
(PID.TID 0000.0001) // =======================================================
(PID.TID 0000.0001) // Begin OBCS MONITOR field statistics
(PID.TID 0000.0001) // =======================================================
(PID.TID 0000.0001) %MON obc_W_uVel_max               =   2.3020874304323E-02
(PID.TID 0000.0001) %MON obc_W_uVel_min               =  -2.3020874304323E-02
(PID.TID 0000.0001) %MON obc_W_uVel_mean              =  -2.0463630789891E-18
(PID.TID 0000.0001) %MON obc_W_uVel_sd                =   1.6328551805267E-02
(PID.TID 0000.0001) %MON obc_W_uVel_Int               =  -2.0463630789891E-12
(PID.TID 0000.0001) // =======================================================
(PID.TID 0000.0001) // End OBCS MONITOR field statistics
(PID.TID 0000.0001) // =======================================================
 cg2d: Sum(rhs),rhsMax =  -5.09958828637247E-14  5.10348417510771E-04
 cg2d: Sum(rhs),rhsMax =  -5.57723355346096E-14  4.70222276057425E-04
 cg2d: Sum(rhs),rhsMax =  -6.33510171405005E-14  3.98472411827398E-04
 cg2d: Sum(rhs),rhsMax =  -7.40256380499238E-14  3.50650414354832E-04
 cg2d: Sum(rhs),rhsMax =  -7.23371015864949E-14  3.34990612545212E-04
(PID.TID 0000.0001)                    cg2d_init_res =    3.46498055190155E-01
(PID.TID 0000.0001)                       cg2d_iters =    58
(PID.TID 0000.0001)                         cg2d_res =    4.47615879835029E-18
(PID.TID 0000.0001) // =======================================================
(PID.TID 0000.0001) // Begin MONITOR dynamic field statistics
(PID.TID 0000.0001) // =======================================================
(PID.TID 0000.0001) %MON time_tsnumber                =                    70
(PID.TID 0000.0001) %MON time_secondsf                =   3.5000000000000E+04
(PID.TID 0000.0001) %MON dynstat_eta_max              =   1.1739499057371E-04
(PID.TID 0000.0001) %MON dynstat_eta_min              =  -1.8216479625081E-04
(PID.TID 0000.0001) %MON dynstat_eta_mean             =   1.1198953355133E-16
(PID.TID 0000.0001) %MON dynstat_eta_sd               =   4.3788187851640E-05
(PID.TID 0000.0001) %MON dynstat_eta_del2             =   1.1694110591913E-06
(PID.TID 0000.0001) %MON dynstat_uvel_max             =   2.2725295005345E-02
(PID.TID 0000.0001) %MON dynstat_uvel_min             =  -2.2882648850336E-02
(PID.TID 0000.0001) %MON dynstat_uvel_mean            =   5.9584878576651E-08
(PID.TID 0000.0001) %MON dynstat_uvel_sd              =   7.1013122809144E-03
(PID.TID 0000.0001) %MON dynstat_uvel_del2            =   6.6365836647343E-05
(PID.TID 0000.0001) %MON dynstat_vvel_max             =   0.0000000000000E+00
(PID.TID 0000.0001) %MON dynstat_vvel_min             =   0.0000000000000E+00
(PID.TID 0000.0001) %MON dynstat_vvel_mean            =   0.0000000000000E+00
(PID.TID 0000.0001) %MON dynstat_vvel_sd              =   0.0000000000000E+00
(PID.TID 0000.0001) %MON dynstat_vvel_del2            =   0.0000000000000E+00
(PID.TID 0000.0001) %MON dynstat_wvel_max             =   3.3003880988614E-03
(PID.TID 0000.0001) %MON dynstat_wvel_min             =  -2.3574158967200E-03
(PID.TID 0000.0001) %MON dynstat_wvel_mean            =   1.4854167203389E-04
(PID.TID 0000.0001) %MON dynstat_wvel_sd              =   8.8214210707019E-04
(PID.TID 0000.0001) %MON dynstat_wvel_del2            =   1.5479366593813E-05
(PID.TID 0000.0001) %MON dynstat_theta_max            =   4.7789441794749E-02
(PID.TID 0000.0001) %MON dynstat_theta_min            =  -4.7876342241256E-02
(PID.TID 0000.0001) %MON dynstat_theta_mean           =   1.4873339575973E-02
(PID.TID 0000.0001) %MON dynstat_theta_sd             =   2.7379169201676E-02
(PID.TID 0000.0001) %MON dynstat_theta_del2           =   3.4528469911116E-05
(PID.TID 0000.0001) %MON dynstat_salt_max             =   3.5000000000000E+01
(PID.TID 0000.0001) %MON dynstat_salt_min             =   3.5000000000000E+01
(PID.TID 0000.0001) %MON dynstat_salt_mean            =   3.5000000000000E+01
(PID.TID 0000.0001) %MON dynstat_salt_sd              =   3.5527136788005E-13
(PID.TID 0000.0001) %MON dynstat_salt_del2            =   2.6218552499998E-01
(PID.TID 0000.0001) %MON advcfl_uvel_max              =   5.2475247363553E-02
(PID.TID 0000.0001) %MON advcfl_vvel_max              =   0.0000000000000E+00
(PID.TID 0000.0001) %MON advcfl_wvel_max              =   1.6501940494307E-01
(PID.TID 0000.0001) %MON advcfl_W_hf_max              =   1.6501940494307E-01
(PID.TID 0000.0001) %MON pe_b_mean                    =   9.2905145302935E-11
(PID.TID 0000.0001) %MON ke_max                       =   2.5538831143167E-04
(PID.TID 0000.0001) %MON ke_mean                      =   2.3016707286303E-05
(PID.TID 0000.0001) %MON ke_vol                       =   6.4007813759742E+09
(PID.TID 0000.0001) %MON vort_r_min                   =   0.0000000000000E+00
(PID.TID 0000.0001) %MON vort_r_max                   =   0.0000000000000E+00
(PID.TID 0000.0001) %MON vort_a_mean                  =   0.0000000000000E+00
(PID.TID 0000.0001) %MON vort_a_sd                    =   0.0000000000000E+00
(PID.TID 0000.0001) %MON vort_p_mean                  =   0.0000000000000E+00
(PID.TID 0000.0001) %MON vort_p_sd                    =   0.0000000000000E+00
(PID.TID 0000.0001) %MON surfExpan_theta_mean         =  -3.1875752271449E-13
(PID.TID 0000.0001) %MON surfExpan_salt_mean          =  -9.2451236077014E-19
(PID.TID 0000.0001) // =======================================================
(PID.TID 0000.0001) // End MONITOR dynamic field statistics
(PID.TID 0000.0001) // =======================================================
(PID.TID 0000.0001) // =======================================================
(PID.TID 0000.0001) // Begin OBCS MONITOR field statistics
(PID.TID 0000.0001) // =======================================================
(PID.TID 0000.0001) %MON obc_W_uVel_max               =   2.2648270443744E-02
(PID.TID 0000.0001) %MON obc_W_uVel_min               =  -2.2648270443744E-02
(PID.TID 0000.0001) %MON obc_W_uVel_mean              =  -9.0949470177293E-19
(PID.TID 0000.0001) %MON obc_W_uVel_sd                =   1.6064266385005E-02
(PID.TID 0000.0001) %MON obc_W_uVel_Int               =  -9.0949470177293E-13
(PID.TID 0000.0001) // =======================================================
(PID.TID 0000.0001) // End OBCS MONITOR field statistics
(PID.TID 0000.0001) // =======================================================
 cg2d: Sum(rhs),rhsMax =  -6.59140710762562E-14  3.62758602566326E-04
 cg2d: Sum(rhs),rhsMax =  -5.46017224489770E-14  4.06813106525803E-04
 cg2d: Sum(rhs),rhsMax =  -4.52964488834029E-14  4.27720353753167E-04
 cg2d: Sum(rhs),rhsMax =  -3.65224343823467E-14  4.66863932018328E-04
 cg2d: Sum(rhs),rhsMax =  -2.43607217731423E-14  4.76632511673805E-04
(PID.TID 0000.0001)                    cg2d_init_res =    1.79288752053698E-01
(PID.TID 0000.0001)                       cg2d_iters =    58
(PID.TID 0000.0001)                         cg2d_res =    2.03460160652104E-18
(PID.TID 0000.0001) // =======================================================
(PID.TID 0000.0001) // Begin MONITOR dynamic field statistics
(PID.TID 0000.0001) // =======================================================
(PID.TID 0000.0001) %MON time_tsnumber                =                    75
(PID.TID 0000.0001) %MON time_secondsf                =   3.7500000000000E+04
(PID.TID 0000.0001) %MON dynstat_eta_max              =   1.1875198197737E-04
(PID.TID 0000.0001) %MON dynstat_eta_min              =  -1.7817375733095E-04
(PID.TID 0000.0001) %MON dynstat_eta_mean             =   6.8927698935836E-17
(PID.TID 0000.0001) %MON dynstat_eta_sd               =   4.7339733785903E-05
(PID.TID 0000.0001) %MON dynstat_eta_del2             =   1.3581037623726E-06
(PID.TID 0000.0001) %MON dynstat_uvel_max             =   2.2680636005867E-02
(PID.TID 0000.0001) %MON dynstat_uvel_min             =  -2.3291927407170E-02
(PID.TID 0000.0001) %MON dynstat_uvel_mean            =   7.6935006185621E-08
(PID.TID 0000.0001) %MON dynstat_uvel_sd              =   7.3678032686652E-03
(PID.TID 0000.0001) %MON dynstat_uvel_del2            =   6.9910722075737E-05
(PID.TID 0000.0001) %MON dynstat_vvel_max             =   0.0000000000000E+00
(PID.TID 0000.0001) %MON dynstat_vvel_min             =   0.0000000000000E+00
(PID.TID 0000.0001) %MON dynstat_vvel_mean            =   0.0000000000000E+00
(PID.TID 0000.0001) %MON dynstat_vvel_sd              =   0.0000000000000E+00
(PID.TID 0000.0001) %MON dynstat_vvel_del2            =   0.0000000000000E+00
(PID.TID 0000.0001) %MON dynstat_wvel_max             =   3.2449490980775E-03
(PID.TID 0000.0001) %MON dynstat_wvel_min             =  -2.2874407000902E-03
(PID.TID 0000.0001) %MON dynstat_wvel_mean            =   1.2783538045573E-04
(PID.TID 0000.0001) %MON dynstat_wvel_sd              =   8.9281846480994E-04
(PID.TID 0000.0001) %MON dynstat_wvel_del2            =   1.9504820281140E-05
(PID.TID 0000.0001) %MON dynstat_theta_max            =   4.7676083494528E-02
(PID.TID 0000.0001) %MON dynstat_theta_min            =  -4.8031058838768E-02
(PID.TID 0000.0001) %MON dynstat_theta_mean           =   1.4701994497056E-02
(PID.TID 0000.0001) %MON dynstat_theta_sd             =   2.7479602219855E-02
(PID.TID 0000.0001) %MON dynstat_theta_del2           =   3.6143819976250E-05
(PID.TID 0000.0001) %MON dynstat_salt_max             =   3.5000000000000E+01
(PID.TID 0000.0001) %MON dynstat_salt_min             =   3.5000000000000E+01
(PID.TID 0000.0001) %MON dynstat_salt_mean            =   3.5000000000000E+01
(PID.TID 0000.0001) %MON dynstat_salt_sd              =   3.4816594052245E-13
(PID.TID 0000.0001) %MON dynstat_salt_del2            =   2.6218552499998E-01
(PID.TID 0000.0001) %MON advcfl_uvel_max              =   5.3413818490127E-02
(PID.TID 0000.0001) %MON advcfl_vvel_max              =   0.0000000000000E+00
(PID.TID 0000.0001) %MON advcfl_wvel_max              =   1.6224745490388E-01
(PID.TID 0000.0001) %MON advcfl_W_hf_max              =   1.6224745490388E-01
(PID.TID 0000.0001) %MON pe_b_mean                    =   1.0858690242465E-10
(PID.TID 0000.0001) %MON ke_max                       =   2.4136646875301E-04
(PID.TID 0000.0001) %MON ke_mean                      =   2.5514630105205E-05
(PID.TID 0000.0001) %MON ke_vol                       =   6.4007813759742E+09
(PID.TID 0000.0001) %MON vort_r_min                   =   0.0000000000000E+00
(PID.TID 0000.0001) %MON vort_r_max                   =   0.0000000000000E+00
(PID.TID 0000.0001) %MON vort_a_mean                  =   0.0000000000000E+00
(PID.TID 0000.0001) %MON vort_a_sd                    =   0.0000000000000E+00
(PID.TID 0000.0001) %MON vort_p_mean                  =   0.0000000000000E+00
(PID.TID 0000.0001) %MON vort_p_sd                    =   0.0000000000000E+00
(PID.TID 0000.0001) %MON surfExpan_theta_mean         =  -1.2614387689595E-12
(PID.TID 0000.0001) %MON surfExpan_salt_mean          =  -8.0082767254782E-19
(PID.TID 0000.0001) // =======================================================
(PID.TID 0000.0001) // End MONITOR dynamic field statistics
(PID.TID 0000.0001) // =======================================================
(PID.TID 0000.0001) // =======================================================
(PID.TID 0000.0001) // Begin OBCS MONITOR field statistics
(PID.TID 0000.0001) // =======================================================
(PID.TID 0000.0001) %MON obc_W_uVel_max               =   1.9491165200966E-02
(PID.TID 0000.0001) %MON obc_W_uVel_min               =  -1.9491165200966E-02
(PID.TID 0000.0001) %MON obc_W_uVel_mean              =  -5.6843418860808E-19
(PID.TID 0000.0001) %MON obc_W_uVel_sd                =   1.3824952802476E-02
(PID.TID 0000.0001) %MON obc_W_uVel_Int               =  -5.6843418860808E-13
(PID.TID 0000.0001) // =======================================================
(PID.TID 0000.0001) // End OBCS MONITOR field statistics
(PID.TID 0000.0001) // =======================================================
 cg2d: Sum(rhs),rhsMax =  -3.24215480851375E-14  5.06784550734863E-04
 cg2d: Sum(rhs),rhsMax =  -3.21394386798568E-14  5.01936332721978E-04
 cg2d: Sum(rhs),rhsMax =  -3.30221960886945E-14  5.20270793601899E-04
 cg2d: Sum(rhs),rhsMax =  -3.82441474322537E-14  4.99044449795947E-04
 cg2d: Sum(rhs),rhsMax =  -2.68686982385358E-14  5.04705343844145E-04
(PID.TID 0000.0001)                    cg2d_init_res =    2.11296201711928E-01
(PID.TID 0000.0001)                       cg2d_iters =    58
(PID.TID 0000.0001)                         cg2d_res =    1.98058764010048E-18
(PID.TID 0000.0001) // =======================================================
(PID.TID 0000.0001) // Begin MONITOR dynamic field statistics
(PID.TID 0000.0001) // =======================================================
(PID.TID 0000.0001) %MON time_tsnumber                =                    80
(PID.TID 0000.0001) %MON time_secondsf                =   4.0000000000000E+04
(PID.TID 0000.0001) %MON dynstat_eta_max              =   1.1693698504703E-04
(PID.TID 0000.0001) %MON dynstat_eta_min              =  -1.7877633127207E-04
(PID.TID 0000.0001) %MON dynstat_eta_mean             =   7.5472968813159E-17
(PID.TID 0000.0001) %MON dynstat_eta_sd               =   4.9550857332132E-05
(PID.TID 0000.0001) %MON dynstat_eta_del2             =   1.5302536708280E-06
(PID.TID 0000.0001) %MON dynstat_uvel_max             =   2.2518795612160E-02
(PID.TID 0000.0001) %MON dynstat_uvel_min             =  -2.2779025688593E-02
(PID.TID 0000.0001) %MON dynstat_uvel_mean            =   3.5223871695468E-08
(PID.TID 0000.0001) %MON dynstat_uvel_sd              =   7.4633976768210E-03
(PID.TID 0000.0001) %MON dynstat_uvel_del2            =   7.2470219707715E-05
(PID.TID 0000.0001) %MON dynstat_vvel_max             =   0.0000000000000E+00
(PID.TID 0000.0001) %MON dynstat_vvel_min             =   0.0000000000000E+00
(PID.TID 0000.0001) %MON dynstat_vvel_mean            =   0.0000000000000E+00
(PID.TID 0000.0001) %MON dynstat_vvel_sd              =   0.0000000000000E+00
(PID.TID 0000.0001) %MON dynstat_vvel_del2            =   0.0000000000000E+00
(PID.TID 0000.0001) %MON dynstat_wvel_max             =   3.1124952379227E-03
(PID.TID 0000.0001) %MON dynstat_wvel_min             =  -2.1260199185834E-03
(PID.TID 0000.0001) %MON dynstat_wvel_mean            =   9.1412312867802E-05
(PID.TID 0000.0001) %MON dynstat_wvel_sd              =   9.2861281776868E-04
(PID.TID 0000.0001) %MON dynstat_wvel_del2            =   2.2932727326864E-05
(PID.TID 0000.0001) %MON dynstat_theta_max            =   4.7578202222330E-02
(PID.TID 0000.0001) %MON dynstat_theta_min            =  -4.8055840226411E-02
(PID.TID 0000.0001) %MON dynstat_theta_mean           =   1.4566293158660E-02
(PID.TID 0000.0001) %MON dynstat_theta_sd             =   2.7550706384587E-02
(PID.TID 0000.0001) %MON dynstat_theta_del2           =   3.8502475451455E-05
(PID.TID 0000.0001) %MON dynstat_salt_max             =   3.5000000000000E+01
(PID.TID 0000.0001) %MON dynstat_salt_min             =   3.5000000000000E+01
(PID.TID 0000.0001) %MON dynstat_salt_mean            =   3.5000000000000E+01
(PID.TID 0000.0001) %MON dynstat_salt_sd              =   3.4816594052245E-13
(PID.TID 0000.0001) %MON dynstat_salt_del2            =   2.6218552499998E-01
(PID.TID 0000.0001) %MON advcfl_uvel_max              =   5.2237615300908E-02
(PID.TID 0000.0001) %MON advcfl_vvel_max              =   0.0000000000000E+00
(PID.TID 0000.0001) %MON advcfl_wvel_max              =   1.5562476189613E-01
(PID.TID 0000.0001) %MON advcfl_W_hf_max              =   1.5562476189613E-01
(PID.TID 0000.0001) %MON pe_b_mean                    =   1.1896745414692E-10
(PID.TID 0000.0001) %MON ke_max                       =   2.3869593430144E-04
(PID.TID 0000.0001) %MON ke_mean                      =   2.7018882973779E-05
(PID.TID 0000.0001) %MON ke_vol                       =   6.4007813759742E+09
(PID.TID 0000.0001) %MON vort_r_min                   =   0.0000000000000E+00
(PID.TID 0000.0001) %MON vort_r_max                   =   0.0000000000000E+00
(PID.TID 0000.0001) %MON vort_a_mean                  =   0.0000000000000E+00
(PID.TID 0000.0001) %MON vort_a_sd                    =   0.0000000000000E+00
(PID.TID 0000.0001) %MON vort_p_mean                  =   0.0000000000000E+00
(PID.TID 0000.0001) %MON vort_p_sd                    =   0.0000000000000E+00
(PID.TID 0000.0001) %MON surfExpan_theta_mean         =   1.2640248089252E-12
(PID.TID 0000.0001) %MON surfExpan_salt_mean          =  -1.4252017306067E-18
(PID.TID 0000.0001) // =======================================================
(PID.TID 0000.0001) // End MONITOR dynamic field statistics
(PID.TID 0000.0001) // =======================================================
(PID.TID 0000.0001) // =======================================================
(PID.TID 0000.0001) // Begin OBCS MONITOR field statistics
(PID.TID 0000.0001) // =======================================================
(PID.TID 0000.0001) %MON obc_W_uVel_max               =   1.3937710242320E-02
(PID.TID 0000.0001) %MON obc_W_uVel_min               =  -1.3937710242320E-02
(PID.TID 0000.0001) %MON obc_W_uVel_mean              =  -7.9580786405131E-19
(PID.TID 0000.0001) %MON obc_W_uVel_sd                =   9.8859244323223E-03
(PID.TID 0000.0001) %MON obc_W_uVel_Int               =  -7.9580786405131E-13
(PID.TID 0000.0001) // =======================================================
(PID.TID 0000.0001) // End OBCS MONITOR field statistics
(PID.TID 0000.0001) // =======================================================
 cg2d: Sum(rhs),rhsMax =  -3.86010667874359E-14  4.67477621166188E-04
 cg2d: Sum(rhs),rhsMax =  -3.28799487636644E-14  5.26549831498025E-04
 cg2d: Sum(rhs),rhsMax =  -3.72011449423226E-14  5.48952002075967E-04
 cg2d: Sum(rhs),rhsMax =  -2.90639907973844E-14  6.09130669034865E-04
 cg2d: Sum(rhs),rhsMax =  -2.44279423078364E-14  6.19938494730112E-04
(PID.TID 0000.0001)                    cg2d_init_res =    1.51824676692980E-01
(PID.TID 0000.0001)                       cg2d_iters =    58
(PID.TID 0000.0001)                         cg2d_res =    1.21841994047302E-18
(PID.TID 0000.0001) // =======================================================
(PID.TID 0000.0001) // Begin MONITOR dynamic field statistics
(PID.TID 0000.0001) // =======================================================
(PID.TID 0000.0001) %MON time_tsnumber                =                    85
(PID.TID 0000.0001) %MON time_secondsf                =   4.2500000000000E+04
(PID.TID 0000.0001) %MON dynstat_eta_max              =   1.1377643819531E-04
(PID.TID 0000.0001) %MON dynstat_eta_min              =  -1.8196568193786E-04
(PID.TID 0000.0001) %MON dynstat_eta_mean             =   7.7637764278450E-17
(PID.TID 0000.0001) %MON dynstat_eta_sd               =   5.0493047801706E-05
(PID.TID 0000.0001) %MON dynstat_eta_del2             =   1.5628583076652E-06
(PID.TID 0000.0001) %MON dynstat_uvel_max             =   2.2366982447329E-02
(PID.TID 0000.0001) %MON dynstat_uvel_min             =  -2.2105063347778E-02
(PID.TID 0000.0001) %MON dynstat_uvel_mean            =   3.6300491383178E-08
(PID.TID 0000.0001) %MON dynstat_uvel_sd              =   7.4384117192828E-03
(PID.TID 0000.0001) %MON dynstat_uvel_del2            =   7.3614242312175E-05
(PID.TID 0000.0001) %MON dynstat_vvel_max             =   0.0000000000000E+00
(PID.TID 0000.0001) %MON dynstat_vvel_min             =   0.0000000000000E+00
(PID.TID 0000.0001) %MON dynstat_vvel_mean            =   0.0000000000000E+00
(PID.TID 0000.0001) %MON dynstat_vvel_sd              =   0.0000000000000E+00
(PID.TID 0000.0001) %MON dynstat_vvel_del2            =   0.0000000000000E+00
(PID.TID 0000.0001) %MON dynstat_wvel_max             =   3.1788606885598E-03
(PID.TID 0000.0001) %MON dynstat_wvel_min             =  -2.7811975226171E-03
(PID.TID 0000.0001) %MON dynstat_wvel_mean            =   4.3750519030883E-05
(PID.TID 0000.0001) %MON dynstat_wvel_sd              =   9.8490046191216E-04
(PID.TID 0000.0001) %MON dynstat_wvel_del2            =   2.4720873372537E-05
(PID.TID 0000.0001) %MON dynstat_theta_max            =   4.7466823239961E-02
(PID.TID 0000.0001) %MON dynstat_theta_min            =  -4.7928027001102E-02
(PID.TID 0000.0001) %MON dynstat_theta_mean           =   1.4483164649400E-02
(PID.TID 0000.0001) %MON dynstat_theta_sd             =   2.7582819259653E-02
(PID.TID 0000.0001) %MON dynstat_theta_del2           =   4.0892305154268E-05
(PID.TID 0000.0001) %MON dynstat_salt_max             =   3.5000000000000E+01
(PID.TID 0000.0001) %MON dynstat_salt_min             =   3.5000000000000E+01
(PID.TID 0000.0001) %MON dynstat_salt_mean            =   3.5000000000000E+01
(PID.TID 0000.0001) %MON dynstat_salt_sd              =   3.4816594052245E-13
(PID.TID 0000.0001) %MON dynstat_salt_del2            =   2.6218552499998E-01
(PID.TID 0000.0001) %MON advcfl_uvel_max              =   5.1292704108537E-02
(PID.TID 0000.0001) %MON advcfl_vvel_max              =   0.0000000000000E+00
(PID.TID 0000.0001) %MON advcfl_wvel_max              =   1.5894303442799E-01
(PID.TID 0000.0001) %MON advcfl_W_hf_max              =   1.5894303442799E-01
(PID.TID 0000.0001) %MON pe_b_mean                    =   1.2353470814351E-10
(PID.TID 0000.0001) %MON ke_max                       =   2.4190377800524E-04
(PID.TID 0000.0001) %MON ke_mean                      =   2.7474340573542E-05
(PID.TID 0000.0001) %MON ke_vol                       =   6.4007813759742E+09
(PID.TID 0000.0001) %MON vort_r_min                   =   0.0000000000000E+00
(PID.TID 0000.0001) %MON vort_r_max                   =   0.0000000000000E+00
(PID.TID 0000.0001) %MON vort_a_mean                  =   0.0000000000000E+00
(PID.TID 0000.0001) %MON vort_a_sd                    =   0.0000000000000E+00
(PID.TID 0000.0001) %MON vort_p_mean                  =   0.0000000000000E+00
(PID.TID 0000.0001) %MON vort_p_sd                    =   0.0000000000000E+00
(PID.TID 0000.0001) %MON surfExpan_theta_mean         =  -2.9685622691454E-12
(PID.TID 0000.0001) %MON surfExpan_salt_mean          =  -9.6680230151253E-19
(PID.TID 0000.0001) // =======================================================
(PID.TID 0000.0001) // End MONITOR dynamic field statistics
(PID.TID 0000.0001) // =======================================================
(PID.TID 0000.0001) // =======================================================
(PID.TID 0000.0001) // Begin OBCS MONITOR field statistics
(PID.TID 0000.0001) // =======================================================
(PID.TID 0000.0001) %MON obc_W_uVel_max               =   6.6706774839558E-03
(PID.TID 0000.0001) %MON obc_W_uVel_min               =  -6.6706774839558E-03
(PID.TID 0000.0001) %MON obc_W_uVel_mean              =  -6.8212102632970E-19
(PID.TID 0000.0001) %MON obc_W_uVel_sd                =   4.7314668171636E-03
(PID.TID 0000.0001) %MON obc_W_uVel_Int               =  -6.8212102632970E-13
(PID.TID 0000.0001) // =======================================================
(PID.TID 0000.0001) // End OBCS MONITOR field statistics
(PID.TID 0000.0001) // =======================================================
 cg2d: Sum(rhs),rhsMax =  -2.59063603902376E-14  6.69753552736221E-04
 cg2d: Sum(rhs),rhsMax =  -2.79433594319034E-14  6.69154385747425E-04
 cg2d: Sum(rhs),rhsMax =  -2.17369525157274E-14  7.08885103049941E-04
 cg2d: Sum(rhs),rhsMax =  -2.48017752169094E-14  6.97539124200770E-04
 cg2d: Sum(rhs),rhsMax =  -2.65980813762834E-14  7.27852790430558E-04
(PID.TID 0000.0001)                    cg2d_init_res =    9.74740558477301E-02
(PID.TID 0000.0001)                       cg2d_iters =    58
(PID.TID 0000.0001)                         cg2d_res =    2.51757037790805E-19
(PID.TID 0000.0001) // =======================================================
(PID.TID 0000.0001) // Begin MONITOR dynamic field statistics
(PID.TID 0000.0001) // =======================================================
(PID.TID 0000.0001) %MON time_tsnumber                =                    90
(PID.TID 0000.0001) %MON time_secondsf                =   4.5000000000000E+04
(PID.TID 0000.0001) %MON dynstat_eta_max              =   1.1385299429835E-04
(PID.TID 0000.0001) %MON dynstat_eta_min              =  -1.8326362708262E-04
(PID.TID 0000.0001) %MON dynstat_eta_mean             =   8.5282872516337E-17
(PID.TID 0000.0001) %MON dynstat_eta_sd               =   5.0963207280568E-05
(PID.TID 0000.0001) %MON dynstat_eta_del2             =   1.5843447910437E-06
(PID.TID 0000.0001) %MON dynstat_uvel_max             =   2.2282617892255E-02
(PID.TID 0000.0001) %MON dynstat_uvel_min             =  -2.2953179827867E-02
(PID.TID 0000.0001) %MON dynstat_uvel_mean            =   8.6397939974963E-09
(PID.TID 0000.0001) %MON dynstat_uvel_sd              =   7.3940064732785E-03
(PID.TID 0000.0001) %MON dynstat_uvel_del2            =   7.4368847084352E-05
(PID.TID 0000.0001) %MON dynstat_vvel_max             =   0.0000000000000E+00
(PID.TID 0000.0001) %MON dynstat_vvel_min             =   0.0000000000000E+00
(PID.TID 0000.0001) %MON dynstat_vvel_mean            =   0.0000000000000E+00
(PID.TID 0000.0001) %MON dynstat_vvel_sd              =   0.0000000000000E+00
(PID.TID 0000.0001) %MON dynstat_vvel_del2            =   0.0000000000000E+00
(PID.TID 0000.0001) %MON dynstat_wvel_max             =   3.1236067007236E-03
(PID.TID 0000.0001) %MON dynstat_wvel_min             =  -3.1849325914476E-03
(PID.TID 0000.0001) %MON dynstat_wvel_mean            =  -9.2902012461825E-06
(PID.TID 0000.0001) %MON dynstat_wvel_sd              =   1.0472832570466E-03
(PID.TID 0000.0001) %MON dynstat_wvel_del2            =   2.4972040558217E-05
(PID.TID 0000.0001) %MON dynstat_theta_max            =   4.7347142977172E-02
(PID.TID 0000.0001) %MON dynstat_theta_min            =  -4.7647069140303E-02
(PID.TID 0000.0001) %MON dynstat_theta_mean           =   1.4462990712303E-02
(PID.TID 0000.0001) %MON dynstat_theta_sd             =   2.7574665718579E-02
(PID.TID 0000.0001) %MON dynstat_theta_del2           =   4.2980841950913E-05
(PID.TID 0000.0001) %MON dynstat_salt_max             =   3.5000000000000E+01
(PID.TID 0000.0001) %MON dynstat_salt_min             =   3.5000000000000E+01
(PID.TID 0000.0001) %MON dynstat_salt_mean            =   3.5000000000000E+01
(PID.TID 0000.0001) %MON dynstat_salt_sd              =   3.4816594052245E-13
(PID.TID 0000.0001) %MON dynstat_salt_del2            =   2.6218552499998E-01
(PID.TID 0000.0001) %MON advcfl_uvel_max              =   5.2636991334583E-02
(PID.TID 0000.0001) %MON advcfl_vvel_max              =   0.0000000000000E+00
(PID.TID 0000.0001) %MON advcfl_wvel_max              =   1.5924662957238E-01
(PID.TID 0000.0001) %MON advcfl_W_hf_max              =   1.5924662957238E-01
(PID.TID 0000.0001) %MON pe_b_mean                    =   1.2584597369251E-10
(PID.TID 0000.0001) %MON ke_max                       =   2.4118870525510E-04
(PID.TID 0000.0001) %MON ke_mean                      =   2.7327068505138E-05
(PID.TID 0000.0001) %MON ke_vol                       =   6.4007813759742E+09
(PID.TID 0000.0001) %MON vort_r_min                   =   0.0000000000000E+00
(PID.TID 0000.0001) %MON vort_r_max                   =   0.0000000000000E+00
(PID.TID 0000.0001) %MON vort_a_mean                  =   0.0000000000000E+00
(PID.TID 0000.0001) %MON vort_a_sd                    =   0.0000000000000E+00
(PID.TID 0000.0001) %MON vort_p_mean                  =   0.0000000000000E+00
(PID.TID 0000.0001) %MON vort_p_sd                    =   0.0000000000000E+00
(PID.TID 0000.0001) %MON surfExpan_theta_mean         =   1.7699459984826E-12
(PID.TID 0000.0001) %MON surfExpan_salt_mean          =  -2.4163999813273E-19
(PID.TID 0000.0001) // =======================================================
(PID.TID 0000.0001) // End MONITOR dynamic field statistics
(PID.TID 0000.0001) // =======================================================
(PID.TID 0000.0001) // =======================================================
(PID.TID 0000.0001) // Begin OBCS MONITOR field statistics
(PID.TID 0000.0001) // =======================================================
(PID.TID 0000.0001) %MON obc_W_uVel_max               =   1.4164845960018E-03
(PID.TID 0000.0001) %MON obc_W_uVel_min               =  -1.4164845960018E-03
(PID.TID 0000.0001) %MON obc_W_uVel_mean              =   9.9475983006414E-20
(PID.TID 0000.0001) %MON obc_W_uVel_sd                =   1.0047030274100E-03
(PID.TID 0000.0001) %MON obc_W_uVel_Int               =   9.9475983006414E-14
(PID.TID 0000.0001) // =======================================================
(PID.TID 0000.0001) // End OBCS MONITOR field statistics
(PID.TID 0000.0001) // =======================================================
 cg2d: Sum(rhs),rhsMax =  -2.73453135135604E-14  7.06721955310860E-04
 cg2d: Sum(rhs),rhsMax =  -2.21120864674074E-14  7.28499858397876E-04
 cg2d: Sum(rhs),rhsMax =  -2.97747937416659E-14  6.98714133617789E-04
 cg2d: Sum(rhs),rhsMax =  -3.19098046597244E-14  7.12965035358086E-04
 cg2d: Sum(rhs),rhsMax =  -3.58471932693227E-14  6.75746735862665E-04
(PID.TID 0000.0001)                    cg2d_init_res =    1.60417905438891E-01
(PID.TID 0000.0001)                       cg2d_iters =    58
(PID.TID 0000.0001)                         cg2d_res =    2.64965874492247E-19
(PID.TID 0000.0001) // =======================================================
(PID.TID 0000.0001) // Begin MONITOR dynamic field statistics
(PID.TID 0000.0001) // =======================================================
(PID.TID 0000.0001) %MON time_tsnumber                =                    95
(PID.TID 0000.0001) %MON time_secondsf                =   4.7500000000000E+04
(PID.TID 0000.0001) %MON dynstat_eta_max              =   1.1103064097947E-04
(PID.TID 0000.0001) %MON dynstat_eta_min              =  -1.8268911538990E-04
(PID.TID 0000.0001) %MON dynstat_eta_mean             =   1.2521507803771E-16
(PID.TID 0000.0001) %MON dynstat_eta_sd               =   5.1532975390158E-05
(PID.TID 0000.0001) %MON dynstat_eta_del2             =   1.5980047830963E-06
(PID.TID 0000.0001) %MON dynstat_uvel_max             =   2.2263519121248E-02
(PID.TID 0000.0001) %MON dynstat_uvel_min             =  -2.4165063849046E-02
(PID.TID 0000.0001) %MON dynstat_uvel_mean            =   9.1724178920141E-09
(PID.TID 0000.0001) %MON dynstat_uvel_sd              =   7.4447162969103E-03
(PID.TID 0000.0001) %MON dynstat_uvel_del2            =   7.6697502358876E-05
(PID.TID 0000.0001) %MON dynstat_vvel_max             =   0.0000000000000E+00
(PID.TID 0000.0001) %MON dynstat_vvel_min             =   0.0000000000000E+00
(PID.TID 0000.0001) %MON dynstat_vvel_mean            =   0.0000000000000E+00
(PID.TID 0000.0001) %MON dynstat_vvel_sd              =   0.0000000000000E+00
(PID.TID 0000.0001) %MON dynstat_vvel_del2            =   0.0000000000000E+00
(PID.TID 0000.0001) %MON dynstat_wvel_max             =   3.0345269839574E-03
(PID.TID 0000.0001) %MON dynstat_wvel_min             =  -3.2054272155911E-03
(PID.TID 0000.0001) %MON dynstat_wvel_mean            =  -6.1188733722411E-05
(PID.TID 0000.0001) %MON dynstat_wvel_sd              =   1.1005942056996E-03
(PID.TID 0000.0001) %MON dynstat_wvel_del2            =   2.3578079174854E-05
(PID.TID 0000.0001) %MON dynstat_theta_max            =   4.7260230591758E-02
(PID.TID 0000.0001) %MON dynstat_theta_min            =  -4.7242321310010E-02
(PID.TID 0000.0001) %MON dynstat_theta_mean           =   1.4508152842745E-02
(PID.TID 0000.0001) %MON dynstat_theta_sd             =   2.7532070696801E-02
(PID.TID 0000.0001) %MON dynstat_theta_del2           =   4.4777754095765E-05
(PID.TID 0000.0001) %MON dynstat_salt_max             =   3.5000000000000E+01
(PID.TID 0000.0001) %MON dynstat_salt_min             =   3.5000000000000E+01
(PID.TID 0000.0001) %MON dynstat_salt_mean            =   3.5000000000000E+01
(PID.TID 0000.0001) %MON dynstat_salt_sd              =   3.5527136788005E-13
(PID.TID 0000.0001) %MON dynstat_salt_del2            =   2.6218552499998E-01
(PID.TID 0000.0001) %MON advcfl_uvel_max              =   5.5416123864354E-02
(PID.TID 0000.0001) %MON advcfl_vvel_max              =   0.0000000000000E+00
(PID.TID 0000.0001) %MON advcfl_wvel_max              =   1.6027136077956E-01
(PID.TID 0000.0001) %MON advcfl_W_hf_max              =   1.6027136077956E-01
(PID.TID 0000.0001) %MON pe_b_mean                    =   1.2867561671886E-10
(PID.TID 0000.0001) %MON ke_max                       =   2.8272352237136E-04
(PID.TID 0000.0001) %MON ke_mean                      =   2.7338994931704E-05
(PID.TID 0000.0001) %MON ke_vol                       =   6.4007813759742E+09
(PID.TID 0000.0001) %MON vort_r_min                   =   0.0000000000000E+00
(PID.TID 0000.0001) %MON vort_r_max                   =   0.0000000000000E+00
(PID.TID 0000.0001) %MON vort_a_mean                  =   0.0000000000000E+00
(PID.TID 0000.0001) %MON vort_a_sd                    =   0.0000000000000E+00
(PID.TID 0000.0001) %MON vort_p_mean                  =   0.0000000000000E+00
(PID.TID 0000.0001) %MON vort_p_sd                    =   0.0000000000000E+00
(PID.TID 0000.0001) %MON surfExpan_theta_mean         =  -1.7289682892866E-12
(PID.TID 0000.0001) %MON surfExpan_salt_mean          =  -6.2759716258352E-19
(PID.TID 0000.0001) // =======================================================
(PID.TID 0000.0001) // End MONITOR dynamic field statistics
(PID.TID 0000.0001) // =======================================================
(PID.TID 0000.0001) // =======================================================
(PID.TID 0000.0001) // Begin OBCS MONITOR field statistics
(PID.TID 0000.0001) // =======================================================
(PID.TID 0000.0001) %MON obc_W_uVel_max               =   9.3294963661054E-03
(PID.TID 0000.0001) %MON obc_W_uVel_min               =  -9.3294963661054E-03
(PID.TID 0000.0001) %MON obc_W_uVel_mean              =   4.5474735088646E-19
(PID.TID 0000.0001) %MON obc_W_uVel_sd                =   6.6173492247597E-03
(PID.TID 0000.0001) %MON obc_W_uVel_Int               =   4.5474735088646E-13
(PID.TID 0000.0001) // =======================================================
(PID.TID 0000.0001) // End OBCS MONITOR field statistics
(PID.TID 0000.0001) // =======================================================
 cg2d: Sum(rhs),rhsMax =  -4.61753031644196E-14  6.83555675206207E-04
 cg2d: Sum(rhs),rhsMax =  -5.20898428557626E-14  6.40200554664535E-04
 cg2d: Sum(rhs),rhsMax =  -5.60827426165922E-14  6.42718766519567E-04
 cg2d: Sum(rhs),rhsMax =  -6.70461949847656E-14  5.94567039339760E-04
 cg2d: Sum(rhs),rhsMax =  -7.12615730313892E-14  5.93006504927744E-04
(PID.TID 0000.0001)                    cg2d_init_res =    1.46927123098987E-01
(PID.TID 0000.0001)                       cg2d_iters =    58
(PID.TID 0000.0001)                         cg2d_res =    2.92434750549595E-19
(PID.TID 0000.0001) // =======================================================
(PID.TID 0000.0001) // Begin MONITOR dynamic field statistics
(PID.TID 0000.0001) // =======================================================
(PID.TID 0000.0001) %MON time_tsnumber                =                   100
(PID.TID 0000.0001) %MON time_secondsf                =   5.0000000000000E+04
(PID.TID 0000.0001) %MON dynstat_eta_max              =   1.0459056776041E-04
(PID.TID 0000.0001) %MON dynstat_eta_min              =  -1.8947746158871E-04
(PID.TID 0000.0001) %MON dynstat_eta_mean             =   1.9795148647033E-16
(PID.TID 0000.0001) %MON dynstat_eta_sd               =   5.2079900484947E-05
(PID.TID 0000.0001) %MON dynstat_eta_del2             =   1.5983982212631E-06
(PID.TID 0000.0001) %MON dynstat_uvel_max             =   2.1913427972176E-02
(PID.TID 0000.0001) %MON dynstat_uvel_min             =  -2.7314510736345E-02
(PID.TID 0000.0001) %MON dynstat_uvel_mean            =  -9.0226732575813E-09
(PID.TID 0000.0001) %MON dynstat_uvel_sd              =   7.6601056343396E-03
(PID.TID 0000.0001) %MON dynstat_uvel_del2            =   8.0836805486946E-05
(PID.TID 0000.0001) %MON dynstat_vvel_max             =   0.0000000000000E+00
(PID.TID 0000.0001) %MON dynstat_vvel_min             =   0.0000000000000E+00
(PID.TID 0000.0001) %MON dynstat_vvel_mean            =   0.0000000000000E+00
(PID.TID 0000.0001) %MON dynstat_vvel_sd              =   0.0000000000000E+00
(PID.TID 0000.0001) %MON dynstat_vvel_del2            =   0.0000000000000E+00
(PID.TID 0000.0001) %MON dynstat_wvel_max             =   3.0113364838632E-03
(PID.TID 0000.0001) %MON dynstat_wvel_min             =  -3.2371964629246E-03
(PID.TID 0000.0001) %MON dynstat_wvel_mean            =  -1.0556439092883E-04
(PID.TID 0000.0001) %MON dynstat_wvel_sd              =   1.1354447128360E-03
(PID.TID 0000.0001) %MON dynstat_wvel_del2            =   2.0893815649719E-05
(PID.TID 0000.0001) %MON dynstat_theta_max            =   4.7160914560526E-02
(PID.TID 0000.0001) %MON dynstat_theta_min            =  -4.6949866924385E-02
(PID.TID 0000.0001) %MON dynstat_theta_mean           =   1.4612813460037E-02
(PID.TID 0000.0001) %MON dynstat_theta_sd             =   2.7464723074003E-02
(PID.TID 0000.0001) %MON dynstat_theta_del2           =   4.6344562017503E-05
(PID.TID 0000.0001) %MON dynstat_salt_max             =   3.5000000000000E+01
(PID.TID 0000.0001) %MON dynstat_salt_min             =   3.5000000000000E+01
(PID.TID 0000.0001) %MON dynstat_salt_mean            =   3.5000000000000E+01
(PID.TID 0000.0001) %MON dynstat_salt_sd              =   3.4816594052245E-13
(PID.TID 0000.0001) %MON dynstat_salt_del2            =   2.6218552499998E-01
(PID.TID 0000.0001) %MON advcfl_uvel_max              =   6.2638539658535E-02
(PID.TID 0000.0001) %MON advcfl_vvel_max              =   0.0000000000000E+00
(PID.TID 0000.0001) %MON advcfl_wvel_max              =   1.6185982314623E-01
(PID.TID 0000.0001) %MON advcfl_W_hf_max              =   1.6185982314623E-01
(PID.TID 0000.0001) %MON pe_b_mean                    =   1.3142140723522E-10
(PID.TID 0000.0001) %MON ke_max                       =   2.8794362280809E-04
(PID.TID 0000.0001) %MON ke_mean                      =   2.8228694456489E-05
(PID.TID 0000.0001) %MON ke_vol                       =   6.4007813759742E+09
(PID.TID 0000.0001) %MON vort_r_min                   =   0.0000000000000E+00
(PID.TID 0000.0001) %MON vort_r_max                   =   0.0000000000000E+00
(PID.TID 0000.0001) %MON vort_a_mean                  =   0.0000000000000E+00
(PID.TID 0000.0001) %MON vort_a_sd                    =   0.0000000000000E+00
(PID.TID 0000.0001) %MON vort_p_mean                  =   0.0000000000000E+00
(PID.TID 0000.0001) %MON vort_p_sd                    =   0.0000000000000E+00
(PID.TID 0000.0001) %MON surfExpan_theta_mean         =  -1.7413015703528E-13
(PID.TID 0000.0001) %MON surfExpan_salt_mean          =   6.4127949918275E-19
(PID.TID 0000.0001) // =======================================================
(PID.TID 0000.0001) // End MONITOR dynamic field statistics
(PID.TID 0000.0001) // =======================================================
(PID.TID 0000.0001) // =======================================================
(PID.TID 0000.0001) // Begin OBCS MONITOR field statistics
(PID.TID 0000.0001) // =======================================================
(PID.TID 0000.0001) %MON obc_W_uVel_max               =   1.6095489179898E-02
(PID.TID 0000.0001) %MON obc_W_uVel_min               =  -1.6095489179898E-02
(PID.TID 0000.0001) %MON obc_W_uVel_mean              =   1.1368683772162E-19
(PID.TID 0000.0001) %MON obc_W_uVel_sd                =   1.1416422566354E-02
(PID.TID 0000.0001) %MON obc_W_uVel_Int               =   1.1368683772162E-13
(PID.TID 0000.0001) // =======================================================
(PID.TID 0000.0001) // End OBCS MONITOR field statistics
(PID.TID 0000.0001) // =======================================================
(PID.TID 0000.0001) %CHECKPOINT       100 ckptA
(PID.TID 0000.0001)   Seconds in section "ALL                    [THE_MODEL_MAIN]":
(PID.TID 0000.0001)           User time:   1.5100000000000000
(PID.TID 0000.0001)         System time:  2.00000000000000004E-002
(PID.TID 0000.0001)     Wall clock time:   5.4313499927520752
(PID.TID 0000.0001)          No. starts:           1
(PID.TID 0000.0001)           No. stops:           1
(PID.TID 0000.0001)   Seconds in section "INITIALISE_FIXED       [THE_MODEL_MAIN]":
(PID.TID 0000.0001)           User time:  0.20000000000000001
(PID.TID 0000.0001)         System time:  1.00000000000000002E-002
(PID.TID 0000.0001)     Wall clock time:   2.5131568908691406
(PID.TID 0000.0001)          No. starts:           1
(PID.TID 0000.0001)           No. stops:           1
(PID.TID 0000.0001)   Seconds in section "THE_MAIN_LOOP          [THE_MODEL_MAIN]":
(PID.TID 0000.0001)           User time:   1.3100000000000001
(PID.TID 0000.0001)         System time:  1.00000000000000002E-002
(PID.TID 0000.0001)     Wall clock time:   2.9167551994323730
(PID.TID 0000.0001)          No. starts:           1
(PID.TID 0000.0001)           No. stops:           1
(PID.TID 0000.0001)   Seconds in section "INITIALISE_VARIA    [THE_MAIN_LOOP]":
(PID.TID 0000.0001)           User time:  9.99999999999998113E-003
(PID.TID 0000.0001)         System time:  1.00000000000000002E-002
(PID.TID 0000.0001)     Wall clock time:  0.55335712432861328
(PID.TID 0000.0001)          No. starts:           1
(PID.TID 0000.0001)           No. stops:           1
(PID.TID 0000.0001)   Seconds in section "MAIN LOOP           [THE_MAIN_LOOP]":
(PID.TID 0000.0001)           User time:   1.3000000000000000
(PID.TID 0000.0001)         System time:   0.0000000000000000
(PID.TID 0000.0001)     Wall clock time:   2.3633511066436768
(PID.TID 0000.0001)          No. starts:           1
(PID.TID 0000.0001)           No. stops:           1
(PID.TID 0000.0001)   Seconds in section "FORWARD_STEP        [THE_MAIN_LOOP]":
(PID.TID 0000.0001)           User time:   1.3000000000000014
(PID.TID 0000.0001)         System time:   0.0000000000000000
(PID.TID 0000.0001)     Wall clock time:   2.3624808788299561
(PID.TID 0000.0001)          No. starts:         100
(PID.TID 0000.0001)           No. stops:         100
(PID.TID 0000.0001)   Seconds in section "UPDATE_SURF_DR      [FORWARD_STEP]":
(PID.TID 0000.0001)           User time:   0.0000000000000000
(PID.TID 0000.0001)         System time:   0.0000000000000000
(PID.TID 0000.0001)     Wall clock time:  5.57732582092285156E-003
(PID.TID 0000.0001)          No. starts:         200
(PID.TID 0000.0001)           No. stops:         200
(PID.TID 0000.0001)   Seconds in section "LOAD_FIELDS_DRIVER  [FORWARD_STEP]":
(PID.TID 0000.0001)           User time:   0.0000000000000000
(PID.TID 0000.0001)         System time:   0.0000000000000000
(PID.TID 0000.0001)     Wall clock time:  2.58231163024902344E-003
(PID.TID 0000.0001)          No. starts:         100
(PID.TID 0000.0001)           No. stops:         100
(PID.TID 0000.0001)   Seconds in section "EXTERNAL_FLDS_LOAD [LOAD_FLDS_DRIVER]":
(PID.TID 0000.0001)           User time:   0.0000000000000000
(PID.TID 0000.0001)         System time:   0.0000000000000000
(PID.TID 0000.0001)     Wall clock time:  8.52823257446289063E-004
(PID.TID 0000.0001)          No. starts:         100
(PID.TID 0000.0001)           No. stops:         100
(PID.TID 0000.0001)   Seconds in section "DO_ATMOSPHERIC_PHYS [FORWARD_STEP]":
(PID.TID 0000.0001)           User time:   0.0000000000000000
(PID.TID 0000.0001)         System time:   0.0000000000000000
(PID.TID 0000.0001)     Wall clock time:  8.69274139404296875E-004
(PID.TID 0000.0001)          No. starts:         100
(PID.TID 0000.0001)           No. stops:         100
(PID.TID 0000.0001)   Seconds in section "DO_OCEANIC_PHYS     [FORWARD_STEP]":
(PID.TID 0000.0001)           User time:   0.0000000000000000
(PID.TID 0000.0001)         System time:   0.0000000000000000
(PID.TID 0000.0001)     Wall clock time:  3.35114002227783203E-002
(PID.TID 0000.0001)          No. starts:         100
(PID.TID 0000.0001)           No. stops:         100
(PID.TID 0000.0001)   Seconds in section "THERMODYNAMICS      [FORWARD_STEP]":
(PID.TID 0000.0001)           User time:  0.25000000000000000
(PID.TID 0000.0001)         System time:   0.0000000000000000
(PID.TID 0000.0001)     Wall clock time:  0.26245903968811035
(PID.TID 0000.0001)          No. starts:         100
(PID.TID 0000.0001)           No. stops:         100
(PID.TID 0000.0001)   Seconds in section "DYNAMICS            [FORWARD_STEP]":
(PID.TID 0000.0001)           User time:  0.62000000000000033
(PID.TID 0000.0001)         System time:   0.0000000000000000
(PID.TID 0000.0001)     Wall clock time:  0.64925503730773926
(PID.TID 0000.0001)          No. starts:         100
(PID.TID 0000.0001)           No. stops:         100
(PID.TID 0000.0001)   Seconds in section "UPDATE_CG2D         [FORWARD_STEP]":
(PID.TID 0000.0001)           User time:  9.99999999999978684E-003
(PID.TID 0000.0001)         System time:   0.0000000000000000
(PID.TID 0000.0001)     Wall clock time:  1.26609802246093750E-002
(PID.TID 0000.0001)          No. starts:         100
(PID.TID 0000.0001)           No. stops:         100
(PID.TID 0000.0001)   Seconds in section "SOLVE_FOR_PRESSURE  [FORWARD_STEP]":
(PID.TID 0000.0001)           User time:  0.12999999999999989
(PID.TID 0000.0001)         System time:   0.0000000000000000
(PID.TID 0000.0001)     Wall clock time:  0.11522769927978516
(PID.TID 0000.0001)          No. starts:         100
(PID.TID 0000.0001)           No. stops:         100
(PID.TID 0000.0001)   Seconds in section "MOM_CORRECTION_STEP [FORWARD_STEP]":
(PID.TID 0000.0001)           User time:  0.10999999999999988
(PID.TID 0000.0001)         System time:   0.0000000000000000
(PID.TID 0000.0001)     Wall clock time:  6.56960010528564453E-002
(PID.TID 0000.0001)          No. starts:         100
(PID.TID 0000.0001)           No. stops:         100
(PID.TID 0000.0001)   Seconds in section "UPDATE_ETAH         [FORWARD_STEP]":
(PID.TID 0000.0001)           User time:   0.0000000000000000
(PID.TID 0000.0001)         System time:   0.0000000000000000
(PID.TID 0000.0001)     Wall clock time:  2.07614898681640625E-003
(PID.TID 0000.0001)          No. starts:         100
(PID.TID 0000.0001)           No. stops:         100
(PID.TID 0000.0001)   Seconds in section "CALC_SURF_DR      [FORWARD_STEP]":
(PID.TID 0000.0001)           User time:   0.0000000000000000
(PID.TID 0000.0001)         System time:   0.0000000000000000
(PID.TID 0000.0001)     Wall clock time:  5.70130348205566406E-003
(PID.TID 0000.0001)          No. starts:         100
(PID.TID 0000.0001)           No. stops:         100
(PID.TID 0000.0001)   Seconds in section "TRC_CORRECTION_STEP [FORWARD_STEP]":
(PID.TID 0000.0001)           User time:   0.0000000000000000
(PID.TID 0000.0001)         System time:   0.0000000000000000
(PID.TID 0000.0001)     Wall clock time:  7.30752944946289063E-003
(PID.TID 0000.0001)          No. starts:         100
(PID.TID 0000.0001)           No. stops:         100
(PID.TID 0000.0001)   Seconds in section "BLOCKING_EXCHANGES  [FORWARD_STEP]":
(PID.TID 0000.0001)           User time:  8.00000000000000711E-002
(PID.TID 0000.0001)         System time:   0.0000000000000000
(PID.TID 0000.0001)     Wall clock time:  6.98006153106689453E-002
(PID.TID 0000.0001)          No. starts:         100
(PID.TID 0000.0001)           No. stops:         100
(PID.TID 0000.0001)   Seconds in section "DO_STATEVARS_TAVE   [FORWARD_STEP]":
(PID.TID 0000.0001)           User time:   0.0000000000000000
(PID.TID 0000.0001)         System time:   0.0000000000000000
(PID.TID 0000.0001)     Wall clock time:  8.82863998413085938E-004
(PID.TID 0000.0001)          No. starts:         100
(PID.TID 0000.0001)           No. stops:         100
(PID.TID 0000.0001)   Seconds in section "MONITOR             [FORWARD_STEP]":
(PID.TID 0000.0001)           User time:  5.00000000000000444E-002
(PID.TID 0000.0001)         System time:   0.0000000000000000
(PID.TID 0000.0001)     Wall clock time:  2.48124599456787109E-002
(PID.TID 0000.0001)          No. starts:         100
(PID.TID 0000.0001)           No. stops:         100
(PID.TID 0000.0001)   Seconds in section "DO_THE_MODEL_IO     [FORWARD_STEP]":
(PID.TID 0000.0001)           User time:  3.00000000000000266E-002
(PID.TID 0000.0001)         System time:   0.0000000000000000
(PID.TID 0000.0001)     Wall clock time:   1.0846376419067383
(PID.TID 0000.0001)          No. starts:         100
(PID.TID 0000.0001)           No. stops:         100
(PID.TID 0000.0001)   Seconds in section "DO_WRITE_PICKUP     [FORWARD_STEP]":
(PID.TID 0000.0001)           User time:   0.0000000000000000
(PID.TID 0000.0001)         System time:   0.0000000000000000
(PID.TID 0000.0001)     Wall clock time:  2.73633003234863281E-003
(PID.TID 0000.0001)          No. starts:         100
(PID.TID 0000.0001)           No. stops:         100
(PID.TID 0000.0001) // ======================================================
(PID.TID 0000.0001) // Tile <-> Tile communication statistics
(PID.TID 0000.0001) // ======================================================
(PID.TID 0000.0001) // o Tile number: 000001
(PID.TID 0000.0001) //         No. X exchanges =              0
(PID.TID 0000.0001) //            Max. X spins =              0
(PID.TID 0000.0001) //            Min. X spins =     1000000000
(PID.TID 0000.0001) //          Total. X spins =              0
(PID.TID 0000.0001) //            Avg. X spins =       0.00E+00
(PID.TID 0000.0001) //         No. Y exchanges =              0
(PID.TID 0000.0001) //            Max. Y spins =              0
(PID.TID 0000.0001) //            Min. Y spins =     1000000000
(PID.TID 0000.0001) //          Total. Y spins =              0
(PID.TID 0000.0001) //            Avg. Y spins =       0.00E+00
(PID.TID 0000.0001) // o Tile number: 000002
(PID.TID 0000.0001) //         No. X exchanges =              0
(PID.TID 0000.0001) //            Max. X spins =              0
(PID.TID 0000.0001) //            Min. X spins =     1000000000
(PID.TID 0000.0001) //          Total. X spins =              0
(PID.TID 0000.0001) //            Avg. X spins =       0.00E+00
(PID.TID 0000.0001) //         No. Y exchanges =              0
(PID.TID 0000.0001) //            Max. Y spins =              0
(PID.TID 0000.0001) //            Min. Y spins =     1000000000
(PID.TID 0000.0001) //          Total. Y spins =              0
(PID.TID 0000.0001) //            Avg. Y spins =       0.00E+00
(PID.TID 0000.0001) // o Thread number: 000001
(PID.TID 0000.0001) //            No. barriers =          38806
(PID.TID 0000.0001) //      Max. barrier spins =              1
(PID.TID 0000.0001) //      Min. barrier spins =              1
(PID.TID 0000.0001) //     Total barrier spins =          38806
(PID.TID 0000.0001) //      Avg. barrier spins =       1.00E+00
PROGRAM MAIN: Execution ended Normally
