(PID.TID 0000.0001) 
(PID.TID 0000.0001) // ======================================================
(PID.TID 0000.0001) //                      MITgcm UV
(PID.TID 0000.0001) //                      =========
(PID.TID 0000.0001) // ======================================================
(PID.TID 0000.0001) // execution environment starting up...
(PID.TID 0000.0001) 
(PID.TID 0000.0001) // MITgcmUV version:  checkpoint65a
(PID.TID 0000.0001) // Build user:        jmc
(PID.TID 0000.0001) // Build host:        baudelaire
(PID.TID 0000.0001) // Build date:        Tue Jul 29 23:03:18 EDT 2014
(PID.TID 0000.0001) 
(PID.TID 0000.0001) // =======================================================
(PID.TID 0000.0001) // Execution Environment parameter file "eedata"
(PID.TID 0000.0001) // =======================================================
(PID.TID 0000.0001) ># Example "eedata" file
(PID.TID 0000.0001) ># Lines beginning "#" are comments
(PID.TID 0000.0001) ># nTx - No. threads per process in X
(PID.TID 0000.0001) ># nTy - No. threads per process in Y
(PID.TID 0000.0001) > &EEPARMS
(PID.TID 0000.0001) > /
(PID.TID 0000.0001) ># Note: Some systems use & as the
(PID.TID 0000.0001) ># namelist terminator. Other systems
(PID.TID 0000.0001) ># use a / character (as shown here).
(PID.TID 0000.0001) 
(PID.TID 0000.0001) // =======================================================
(PID.TID 0000.0001) // Computational Grid Specification ( see files "SIZE.h" )
(PID.TID 0000.0001) //                                  ( and "eedata"       )
(PID.TID 0000.0001) // =======================================================
(PID.TID 0000.0001)      nPx =    1 ; /* No. processes in X */
(PID.TID 0000.0001)      nPy =    1 ; /* No. processes in Y */
(PID.TID 0000.0001)      nSx =    2 ; /* No. tiles in X per process */
(PID.TID 0000.0001)      nSy =    1 ; /* No. tiles in Y per process */
(PID.TID 0000.0001)      sNx =   30 ; /* Tile size in X */
(PID.TID 0000.0001)      sNy =    1 ; /* Tile size in Y */
(PID.TID 0000.0001)      OLx =    2 ; /* Tile overlap distance in X */
(PID.TID 0000.0001)      OLy =    2 ; /* Tile overlap distance in Y */
(PID.TID 0000.0001)      nTx =    1 ; /* No. threads in X per process */
(PID.TID 0000.0001)      nTy =    1 ; /* No. threads in Y per process */
(PID.TID 0000.0001)       Nr =   20 ; /* No. levels in the vertical   */
(PID.TID 0000.0001)       Nx =   60 ; /* Total domain size in X ( = nPx*nSx*sNx ) */
(PID.TID 0000.0001)       Ny =    1 ; /* Total domain size in Y ( = nPy*nSy*sNy ) */
(PID.TID 0000.0001)   nTiles =    2 ; /* Total no. tiles per process ( = nSx*nSy ) */
(PID.TID 0000.0001)   nProcs =    1 ; /* Total no. processes ( = nPx*nPy ) */
(PID.TID 0000.0001) nThreads =    1 ; /* Total no. threads per process ( = nTx*nTy ) */
(PID.TID 0000.0001) usingMPI =    F ; /* Flag used to control whether MPI is in use */
(PID.TID 0000.0001)                   /*  note: To execute a program with MPI calls */
(PID.TID 0000.0001)                   /*  it must be launched appropriately e.g     */
(PID.TID 0000.0001)                   /*  "mpirun -np 64 ......"                    */
(PID.TID 0000.0001) useCoupler=    F ;/* Flag used to control communications with   */
(PID.TID 0000.0001)                   /*  other model components, through a coupler */
(PID.TID 0000.0001) debugMode =    F ; /* print debug msg. (sequence of S/R calls)  */
(PID.TID 0000.0001) printMapIncludesZeros=    F ; /* print zeros in Std.Output maps */
(PID.TID 0000.0001) maxLengthPrt1D=   65 /* maxLength of 1D array printed to StdOut */
(PID.TID 0000.0001) 
(PID.TID 0000.0001) // ======================================================
(PID.TID 0000.0001) // Mapping of tiles to threads
(PID.TID 0000.0001) // ======================================================
(PID.TID 0000.0001) // -o- Thread   1, tiles (   1:   2,   1:   1)
(PID.TID 0000.0001) 
(PID.TID 0000.0001) // ======================================================
(PID.TID 0000.0001) // Tile <-> Tile connectvity table
(PID.TID 0000.0001) // ======================================================
(PID.TID 0000.0001) // Tile number: 000001 (process no. = 000000)
(PID.TID 0000.0001) //        WEST: Tile = 000002, Process = 000000, Comm = put
(PID.TID 0000.0001) //                bi = 000002, bj = 000001
(PID.TID 0000.0001) //        EAST: Tile = 000002, Process = 000000, Comm = put
(PID.TID 0000.0001) //                bi = 000002, bj = 000001
(PID.TID 0000.0001) //       SOUTH: Tile = 000001, Process = 000000, Comm = put
(PID.TID 0000.0001) //                bi = 000001, bj = 000001
(PID.TID 0000.0001) //       NORTH: Tile = 000001, Process = 000000, Comm = put
(PID.TID 0000.0001) //                bi = 000001, bj = 000001
(PID.TID 0000.0001) // Tile number: 000002 (process no. = 000000)
(PID.TID 0000.0001) //        WEST: Tile = 000001, Process = 000000, Comm = put
(PID.TID 0000.0001) //                bi = 000001, bj = 000001
(PID.TID 0000.0001) //        EAST: Tile = 000001, Process = 000000, Comm = put
(PID.TID 0000.0001) //                bi = 000001, bj = 000001
(PID.TID 0000.0001) //       SOUTH: Tile = 000002, Process = 000000, Comm = put
(PID.TID 0000.0001) //                bi = 000002, bj = 000001
(PID.TID 0000.0001) //       NORTH: Tile = 000002, Process = 000000, Comm = put
(PID.TID 0000.0001) //                bi = 000002, bj = 000001
(PID.TID 0000.0001) 
(PID.TID 0000.0001)  INI_PARMS: opening model parameter file "data"
(PID.TID 0000.0001)  OPEN_COPY_DATA_FILE: opening file data
(PID.TID 0000.0001) // =======================================================
(PID.TID 0000.0001) // Parameter file "data"
(PID.TID 0000.0001) // =======================================================
(PID.TID 0000.0001) ># ====================
(PID.TID 0000.0001) ># | Model parameters |
(PID.TID 0000.0001) ># ====================
(PID.TID 0000.0001) >#
(PID.TID 0000.0001) ># Continuous equation parameters
(PID.TID 0000.0001) > &PARM01
(PID.TID 0000.0001) > Tref = 0.04842, 0.0433231, 0.0382263, 0.0331295,
(PID.TID 0000.0001) >        0.0280326, 0.0229358, 0.0178389, 0.0127421,
(PID.TID 0000.0001) >        0.00764526, 0.00254842, -0.00254842, -0.00764526,
(PID.TID 0000.0001) >       -0.0127421, -0.0178389, -0.0229358, -0.0280326,
(PID.TID 0000.0001) >       -0.0331295, -0.0382263, -0.0433231, -0.04842,
(PID.TID 0000.0001) > sRef= 20*35.,
(PID.TID 0000.0001) > viscAz=1.E-5,
(PID.TID 0000.0001) > viscAh=1.E-5,
(PID.TID 0000.0001) > no_slip_sides=.FALSE.,
(PID.TID 0000.0001) > no_slip_bottom=.FALSE.,
(PID.TID 0000.0001) > diffKhT=1.E-5
(PID.TID 0000.0001) > diffKzT=1.E-5,
(PID.TID 0000.0001) > implicitDiffusion=.TRUE.
(PID.TID 0000.0001) > implicitViscosity=.TRUE.
(PID.TID 0000.0001) > f0=0.0,
(PID.TID 0000.0001) > beta=0.E-11,
(PID.TID 0000.0001) > eosType='LINEAR',
(PID.TID 0000.0001) > tAlpha=2.E-4,
(PID.TID 0000.0001) > sBeta =0.E-4,
(PID.TID 0000.0001) > gravity=9.81,
(PID.TID 0000.0001) > implicitFreeSurface=.TRUE.,
(PID.TID 0000.0001) > exactConserv=.TRUE.
(PID.TID 0000.0001) > nonHydrostatic=.FALSE.,
(PID.TID 0000.0001) > hFacMin=0.2,
(PID.TID 0000.0001) > implicSurfPress=0.5,
(PID.TID 0000.0001) > implicDiv2DFlow=0.5,
(PID.TID 0000.0001) > nonlinFreeSurf=3,
(PID.TID 0000.0001) > hFacInf=0.2,
(PID.TID 0000.0001) > hFacSup=1.8,
(PID.TID 0000.0001) > saltStepping=.FALSE.,
(PID.TID 0000.0001) >#- not safe to use globalFiles in multi-processors runs
(PID.TID 0000.0001) >#globalFiles=.TRUE.,
(PID.TID 0000.0001) > readBinaryPrec=64,
(PID.TID 0000.0001) > writeBinaryPrec=64,
(PID.TID 0000.0001) > writeStatePrec=64,
(PID.TID 0000.0001) > /
(PID.TID 0000.0001) >
(PID.TID 0000.0001) ># Elliptic solver parameters
(PID.TID 0000.0001) > &PARM02
(PID.TID 0000.0001) > cg2dMaxIters=1000,
(PID.TID 0000.0001) > cg2dTargetResidual=1.E-13,
(PID.TID 0000.0001) > cg3dMaxIters=400,
(PID.TID 0000.0001) > cg3dTargetResidual=1.E-13,
(PID.TID 0000.0001) > /
(PID.TID 0000.0001) >
(PID.TID 0000.0001) ># Time stepping parameters
(PID.TID 0000.0001) > &PARM03
(PID.TID 0000.0001) > nIter0=0,
(PID.TID 0000.0001) > nTimeSteps=300,
(PID.TID 0000.0001) > deltaT=450.,
(PID.TID 0000.0001) > abEps=0.1,
(PID.TID 0000.0001) > pChkptFreq=0.,
(PID.TID 0000.0001) > chkptFreq=0.,
(PID.TID 0000.0001) > dumpFreq=86400.,
(PID.TID 0000.0001) > monitorFreq=7200.,
(PID.TID 0000.0001) > monitorSelect=2,
(PID.TID 0000.0001) > /
(PID.TID 0000.0001) >
(PID.TID 0000.0001) ># Gridding parameters
(PID.TID 0000.0001) > &PARM04
(PID.TID 0000.0001) > usingCartesianGrid=.TRUE.,
(PID.TID 0000.0001) > delXfile='delXvar',
(PID.TID 0000.0001) > delY=5.E3,
(PID.TID 0000.0001) > delZ=20*10.,
(PID.TID 0000.0001) > /
(PID.TID 0000.0001) >
(PID.TID 0000.0001) ># Input datasets
(PID.TID 0000.0001) > &PARM05
(PID.TID 0000.0001) > hydrogThetaFile='T.init',
(PID.TID 0000.0001) > bathyFile='topog.slope',
(PID.TID 0000.0001) > /
(PID.TID 0000.0001) 
(PID.TID 0000.0001)  INI_PARMS ; starts to read PARM01
(PID.TID 0000.0001)  INI_PARMS ; read PARM01 : OK
(PID.TID 0000.0001)  INI_PARMS ; starts to read PARM02
(PID.TID 0000.0001)  INI_PARMS ; read PARM02 : OK
(PID.TID 0000.0001)  INI_PARMS ; starts to read PARM03
(PID.TID 0000.0001)  INI_PARMS ; read PARM03 : OK
(PID.TID 0000.0001)  INI_PARMS ; starts to read PARM04
(PID.TID 0000.0001)  INI_PARMS ; read PARM04 : OK
(PID.TID 0000.0001)  INI_PARMS ; starts to read PARM05
(PID.TID 0000.0001)  INI_PARMS ; read PARM05 : OK
(PID.TID 0000.0001)  INI_PARMS: finished reading file "data"
(PID.TID 0000.0001)  PACKAGES_BOOT: opening data.pkg
(PID.TID 0000.0001)  OPEN_COPY_DATA_FILE: opening file data.pkg
(PID.TID 0000.0001) // =======================================================
(PID.TID 0000.0001) // Parameter file "data.pkg"
(PID.TID 0000.0001) // =======================================================
(PID.TID 0000.0001) ># Packages
(PID.TID 0000.0001) > &PACKAGES
(PID.TID 0000.0001) > useOBCS=.TRUE.,
(PID.TID 0000.0001) > useKL10=.TRUE.,
(PID.TID 0000.0001) > /
(PID.TID 0000.0001) 
(PID.TID 0000.0001)  PACKAGES_BOOT: finished reading data.pkg
(PID.TID 0000.0001)  PACKAGES_BOOT: On/Off package Summary
 --------  pkgs with a standard "usePKG" On/Off switch in "data.pkg":  --------
 pkg/obcs                 compiled   and   used ( useOBCS                  = T )
 pkg/kl10                 compiled   and   used ( useKL10                  = T )
 pkg/mnc                  compiled but not used ( useMNC                   = F )
 -------- pkgs without standard "usePKG" On/Off switch in "data.pkg":  --------
 pkg/generic_advdiff      compiled   and   used ( useGAD                   = T )
 pkg/mom_common           compiled   and   used ( momStepping              = T )
 pkg/mom_vecinv           compiled but not used ( +vectorInvariantMomentum = F )
 pkg/mom_fluxform         compiled   and   used ( & not vectorInvariantMom = T )
 pkg/monitor              compiled   and   used ( monitorFreq > 0.         = T )
 pkg/timeave              compiled but not used ( taveFreq > 0.            = F )
 pkg/debug                compiled but not used ( debugMode                = F )
 pkg/rw                   compiled   and   used
 pkg/mdsio                compiled   and   used
(PID.TID 0000.0001)  PACKAGES_BOOT: End of package Summary
(PID.TID 0000.0001) 
(PID.TID 0000.0001)  OBCS_READPARMS: opening data.obcs
(PID.TID 0000.0001)  OPEN_COPY_DATA_FILE: opening file data.obcs
(PID.TID 0000.0001) // =======================================================
(PID.TID 0000.0001) // Parameter file "data.obcs"
(PID.TID 0000.0001) // =======================================================
(PID.TID 0000.0001) ># Open-boundaries
(PID.TID 0000.0001) > &OBCS_PARM01
(PID.TID 0000.0001) > OB_Ieast=-1,
(PID.TID 0000.0001) > OB_Iwest=1,
(PID.TID 0000.0001) > /
(PID.TID 0000.0001) >
(PID.TID 0000.0001) 
(PID.TID 0000.0001)  OBCS_READPARMS: finished reading data.obcs
(PID.TID 0000.0001)  OB_indexUnset = /* unset OB index value (i.e. no OB) */
(PID.TID 0000.0001)                       0
(PID.TID 0000.0001)     ;
(PID.TID 0000.0001)  Northern OB global indices : OB_Jnorth =
(PID.TID 0000.0001)    60 @        0                            /* I =  1: 60 */
(PID.TID 0000.0001)  Southern OB global indices : OB_Jsouth =
(PID.TID 0000.0001)    60 @        0                            /* I =  1: 60 */
(PID.TID 0000.0001)  Eastern  OB global indices : OB_Ieast =
(PID.TID 0000.0001)                      60                     /* J =  1 */
(PID.TID 0000.0001)  Western  OB global indices : OB_Iwest =
(PID.TID 0000.0001)                       1                     /* J =  1 */
(PID.TID 0000.0001) 
(PID.TID 0000.0001)  KL10_READPARMS: opening data.kl10
(PID.TID 0000.0001)  OPEN_COPY_DATA_FILE: opening file data.kl10
(PID.TID 0000.0001) // =======================================================
(PID.TID 0000.0001) // Parameter file "data.kl10"
(PID.TID 0000.0001) // =======================================================
(PID.TID 0000.0001) ># =====================================================================
(PID.TID 0000.0001) ># | Parameters for Klymak and Legg (2010) vertical mixing scheme      |
(PID.TID 0000.0001) ># =====================================================================
(PID.TID 0000.0001) > &KL10_PARM01
(PID.TID 0000.0001) > KLwriteState=.TRUE.,
(PID.TID 0000.0001) ># keep commented if you want the same average frequency as the other snapshots
(PID.TID 0000.0001) >  KLtaveFreq=44640.,
(PID.TID 0000.0001) ># KLdumpFreq=1240.,
(PID.TID 0000.0001) > KLviscMax=300.
(PID.TID 0000.0001) > /
(PID.TID 0000.0001) 
(PID.TID 0000.0001)  KL10_READPARMS: finished reading data.kl10
(PID.TID 0000.0001) SET_PARMS: done
(PID.TID 0000.0001)  MDS_READVEC_LOC: open file: delXvar
(PID.TID 0000.0001) S/R LOAD_GRID_SPACING: delX loaded from file: delXvar
(PID.TID 0000.0001) Enter INI_VERTICAL_GRID: setInterFDr=    T ; setCenterDr=    F
(PID.TID 0000.0001) %MON XC_max                       =   1.2972950819672E+04
(PID.TID 0000.0001) %MON XC_min                       =   1.0901639344262E+02
(PID.TID 0000.0001) %MON XC_mean                      =   6.5409836065574E+03
(PID.TID 0000.0001) %MON XC_sd                        =   3.7759141042143E+03
(PID.TID 0000.0001) %MON XG_max                       =   1.2863934426229E+04
(PID.TID 0000.0001) %MON XG_min                       =   0.0000000000000E+00
(PID.TID 0000.0001) %MON XG_mean                      =   6.4319672131147E+03
(PID.TID 0000.0001) %MON XG_sd                        =   3.7759141042143E+03
(PID.TID 0000.0001) %MON DXC_max                      =   2.1803278688525E+02
(PID.TID 0000.0001) %MON DXC_min                      =   2.1803278688525E+02
(PID.TID 0000.0001) %MON DXC_mean                     =   2.1803278688525E+02
(PID.TID 0000.0001) %MON DXC_sd                       =   1.4210854715202E-13
(PID.TID 0000.0001) %MON DXF_max                      =   2.1803278688525E+02
(PID.TID 0000.0001) %MON DXF_min                      =   2.1803278688525E+02
(PID.TID 0000.0001) %MON DXF_mean                     =   2.1803278688525E+02
(PID.TID 0000.0001) %MON DXF_sd                       =   1.4210854715202E-13
(PID.TID 0000.0001) %MON DXG_max                      =   2.1803278688525E+02
(PID.TID 0000.0001) %MON DXG_min                      =   2.1803278688525E+02
(PID.TID 0000.0001) %MON DXG_mean                     =   2.1803278688525E+02
(PID.TID 0000.0001) %MON DXG_sd                       =   1.4210854715202E-13
(PID.TID 0000.0001) %MON DXV_max                      =   2.1803278688525E+02
(PID.TID 0000.0001) %MON DXV_min                      =   2.1803278688525E+02
(PID.TID 0000.0001) %MON DXV_mean                     =   2.1803278688525E+02
(PID.TID 0000.0001) %MON DXV_sd                       =   1.4210854715202E-13
(PID.TID 0000.0001) %MON YC_max                       =   2.5000000000000E+03
(PID.TID 0000.0001) %MON YC_min                       =   2.5000000000000E+03
(PID.TID 0000.0001) %MON YC_mean                      =   2.5000000000000E+03
(PID.TID 0000.0001) %MON YC_sd                        =   0.0000000000000E+00
(PID.TID 0000.0001) %MON YG_max                       =   0.0000000000000E+00
(PID.TID 0000.0001) %MON YG_min                       =   0.0000000000000E+00
(PID.TID 0000.0001) %MON YG_mean                      =   0.0000000000000E+00
(PID.TID 0000.0001) %MON YG_sd                        =   0.0000000000000E+00
(PID.TID 0000.0001) %MON DYC_max                      =   5.0000000000000E+03
(PID.TID 0000.0001) %MON DYC_min                      =   5.0000000000000E+03
(PID.TID 0000.0001) %MON DYC_mean                     =   5.0000000000000E+03
(PID.TID 0000.0001) %MON DYC_sd                       =   0.0000000000000E+00
(PID.TID 0000.0001) %MON DYF_max                      =   5.0000000000000E+03
(PID.TID 0000.0001) %MON DYF_min                      =   5.0000000000000E+03
(PID.TID 0000.0001) %MON DYF_mean                     =   5.0000000000000E+03
(PID.TID 0000.0001) %MON DYF_sd                       =   0.0000000000000E+00
(PID.TID 0000.0001) %MON DYG_max                      =   5.0000000000000E+03
(PID.TID 0000.0001) %MON DYG_min                      =   5.0000000000000E+03
(PID.TID 0000.0001) %MON DYG_mean                     =   5.0000000000000E+03
(PID.TID 0000.0001) %MON DYG_sd                       =   0.0000000000000E+00
(PID.TID 0000.0001) %MON DYU_max                      =   5.0000000000000E+03
(PID.TID 0000.0001) %MON DYU_min                      =   5.0000000000000E+03
(PID.TID 0000.0001) %MON DYU_mean                     =   5.0000000000000E+03
(PID.TID 0000.0001) %MON DYU_sd                       =   0.0000000000000E+00
(PID.TID 0000.0001) %MON RA_max                       =   1.0901639344262E+06
(PID.TID 0000.0001) %MON RA_min                       =   1.0901639344262E+06
(PID.TID 0000.0001) %MON RA_mean                      =   1.0901639344262E+06
(PID.TID 0000.0001) %MON RA_sd                        =   0.0000000000000E+00
(PID.TID 0000.0001) %MON RAW_max                      =   1.0901639344262E+06
(PID.TID 0000.0001) %MON RAW_min                      =   1.0901639344262E+06
(PID.TID 0000.0001) %MON RAW_mean                     =   1.0901639344262E+06
(PID.TID 0000.0001) %MON RAW_sd                       =   0.0000000000000E+00
(PID.TID 0000.0001) %MON RAS_max                      =   1.0901639344262E+06
(PID.TID 0000.0001) %MON RAS_min                      =   1.0901639344262E+06
(PID.TID 0000.0001) %MON RAS_mean                     =   1.0901639344262E+06
(PID.TID 0000.0001) %MON RAS_sd                       =   0.0000000000000E+00
(PID.TID 0000.0001) %MON RAZ_max                      =   1.0901639344262E+06
(PID.TID 0000.0001) %MON RAZ_min                      =   1.0901639344262E+06
(PID.TID 0000.0001) %MON RAZ_mean                     =   1.0901639344262E+06
(PID.TID 0000.0001) %MON RAZ_sd                       =   0.0000000000000E+00
(PID.TID 0000.0001) %MON AngleCS_max                  =   1.0000000000000E+00
(PID.TID 0000.0001) %MON AngleCS_min                  =   1.0000000000000E+00
(PID.TID 0000.0001) %MON AngleCS_mean                 =   1.0000000000000E+00
(PID.TID 0000.0001) %MON AngleCS_sd                   =   0.0000000000000E+00
(PID.TID 0000.0001) %MON AngleSN_max                  =   0.0000000000000E+00
(PID.TID 0000.0001) %MON AngleSN_min                  =   0.0000000000000E+00
(PID.TID 0000.0001) %MON AngleSN_mean                 =   0.0000000000000E+00
(PID.TID 0000.0001) %MON AngleSN_sd                   =   0.0000000000000E+00
(PID.TID 0000.0001)  MDS_READ_FIELD: opening global file: topog.slope
(PID.TID 0000.0001) // =======================================================
(PID.TID 0000.0001) // Field Model R_low (ini_masks_etc)
(PID.TID 0000.0001) // CMIN =         -2.000000000000000E+02
(PID.TID 0000.0001) // CMAX =         -4.000000000000000E+01
(PID.TID 0000.0001) // CINT =          5.925925925925926E+00
(PID.TID 0000.0001) // SYMBOLS (CMIN->CMAX): -abcdefghijklmnopqrstuvwxyz+
(PID.TID 0000.0001) //                  0.0: .
(PID.TID 0000.0001) // RANGE I (Lo:Hi:Step):(    -1:    62:     1)
(PID.TID 0000.0001) // RANGE J (Lo:Hi:Step):(     3:    -1:    -1)
(PID.TID 0000.0001) // RANGE K (Lo:Hi:Step):(   1:   1:   1)
(PID.TID 0000.0001) // =======================================================
(PID.TID 0000.0001) K =   1
(PID.TID 0000.0001) //                I=8       I=18      I=28      I=34      I=44      I=54
(PID.TID 0000.0001) // |--J--|101234567|901234567|901234567|901290123|567890123|567890123|56789012
(PID.TID 0000.0001) //      3 +.-----------abcdefghikkmnopqrstvwstvwxyz++++++++++++++++++++++++.--
(PID.TID 0000.0001) //      2 +.-----------abcdefghikkmnopqrstvwstvwxyz++++++++++++++++++++++++.--
(PID.TID 0000.0001) //      1 +.-----------abcdefghikkmnopqrstvwstvwxyz++++++++++++++++++++++++.--
(PID.TID 0000.0001) //      0 +.-----------abcdefghikkmnopqrstvwstvwxyz++++++++++++++++++++++++.--
(PID.TID 0000.0001) //     -1 +.-----------abcdefghikkmnopqrstvwstvwxyz++++++++++++++++++++++++.--
(PID.TID 0000.0001) // =======================================================
(PID.TID 0000.0001) // END OF FIELD                                          =
(PID.TID 0000.0001) // =======================================================
(PID.TID 0000.0001) 
(PID.TID 0000.0001) // =======================================================
(PID.TID 0000.0001) // Field Model Ro_surf (ini_masks_etc)
(PID.TID 0000.0001) // CMIN =          1.000000000000000E+32
(PID.TID 0000.0001) // CMAX =         -1.000000000000000E+32
(PID.TID 0000.0001) // CINT =          0.000000000000000E+00
(PID.TID 0000.0001) // SYMBOLS (CMIN->CMAX): -abcdefghijklmnopqrstuvwxyz+
(PID.TID 0000.0001) //                  0.0: .
(PID.TID 0000.0001) // RANGE I (Lo:Hi:Step):(    -1:    62:     1)
(PID.TID 0000.0001) // RANGE J (Lo:Hi:Step):(     3:    -1:    -1)
(PID.TID 0000.0001) // RANGE K (Lo:Hi:Step):(   1:   1:   1)
(PID.TID 0000.0001) // =======================================================
(PID.TID 0000.0001) // =======================================================
(PID.TID 0000.0001) // END OF FIELD                                          =
(PID.TID 0000.0001) // =======================================================
(PID.TID 0000.0001) 
(PID.TID 0000.0001) // =======================================================
(PID.TID 0000.0001) // Field hFacC at iteration          0
(PID.TID 0000.0001) // CMIN =          1.000000000000000E+00
(PID.TID 0000.0001) // CMAX =          1.000000000000000E+00
(PID.TID 0000.0001) // CINT =          0.000000000000000E+00
(PID.TID 0000.0001) // SYMBOLS (CMIN->CMAX): -abcdefghijklmnopqrstuvwxyz+
(PID.TID 0000.0001) //                  0.0: .
(PID.TID 0000.0001) // RANGE I (Lo:Hi:Step):(    -1:    62:     1)
(PID.TID 0000.0001) // RANGE J (Lo:Hi:Step):(     3:    -1:    -1)
(PID.TID 0000.0001) // RANGE K (Lo:Hi:Step):(   1:   1:   1)
(PID.TID 0000.0001) // =======================================================
(PID.TID 0000.0001) // =======================================================
(PID.TID 0000.0001) // END OF FIELD                                          =
(PID.TID 0000.0001) // =======================================================
(PID.TID 0000.0001) 
(PID.TID 0000.0001) // =======================================================
(PID.TID 0000.0001) // Field hFacW at iteration          0
(PID.TID 0000.0001) // CMIN =          1.000000000000000E+00
(PID.TID 0000.0001) // CMAX =          1.000000000000000E+00
(PID.TID 0000.0001) // CINT =          0.000000000000000E+00
(PID.TID 0000.0001) // SYMBOLS (CMIN->CMAX): -abcdefghijklmnopqrstuvwxyz+
(PID.TID 0000.0001) //                  0.0: .
(PID.TID 0000.0001) // RANGE I (Lo:Hi:Step):(    -1:    62:     1)
(PID.TID 0000.0001) // RANGE J (Lo:Hi:Step):(     3:    -1:    -1)
(PID.TID 0000.0001) // RANGE K (Lo:Hi:Step):(   1:   1:   1)
(PID.TID 0000.0001) // =======================================================
(PID.TID 0000.0001) // =======================================================
(PID.TID 0000.0001) // END OF FIELD                                          =
(PID.TID 0000.0001) // =======================================================
(PID.TID 0000.0001) 
(PID.TID 0000.0001) // =======================================================
(PID.TID 0000.0001) // Field hFacS at iteration          0
(PID.TID 0000.0001) // CMIN =          1.000000000000000E+00
(PID.TID 0000.0001) // CMAX =          1.000000000000000E+00
(PID.TID 0000.0001) // CINT =          0.000000000000000E+00
(PID.TID 0000.0001) // SYMBOLS (CMIN->CMAX): -abcdefghijklmnopqrstuvwxyz+
(PID.TID 0000.0001) //                  0.0: .
(PID.TID 0000.0001) // RANGE I (Lo:Hi:Step):(    -1:    62:     1)
(PID.TID 0000.0001) // RANGE J (Lo:Hi:Step):(     3:    -1:    -1)
(PID.TID 0000.0001) // RANGE K (Lo:Hi:Step):(   1:   1:   1)
(PID.TID 0000.0001) // =======================================================
(PID.TID 0000.0001) // =======================================================
(PID.TID 0000.0001) // END OF FIELD                                          =
(PID.TID 0000.0001) // =======================================================
(PID.TID 0000.0001) 
(PID.TID 0000.0001) GAD_INIT_FIXED: GAD_OlMinSize=  1  0  1
(PID.TID 0000.0001) 
(PID.TID 0000.0001) // ===================================
(PID.TID 0000.0001) // GAD parameters :
(PID.TID 0000.0001) // ===================================
(PID.TID 0000.0001) tempAdvScheme =   /* Temp. Horiz.Advection scheme selector */
(PID.TID 0000.0001)                       2
(PID.TID 0000.0001)     ;
(PID.TID 0000.0001) tempVertAdvScheme =   /* Temp. Vert. Advection scheme selector */
(PID.TID 0000.0001)                       2
(PID.TID 0000.0001)     ;
(PID.TID 0000.0001) tempMultiDimAdvec =   /* use Muti-Dim Advec method for Temp */
(PID.TID 0000.0001)                   F
(PID.TID 0000.0001)     ;
(PID.TID 0000.0001) tempSOM_Advection = /* use 2nd Order Moment Advection for Temp */
(PID.TID 0000.0001)                   F
(PID.TID 0000.0001)     ;
(PID.TID 0000.0001) AdamsBashforthGt = /* apply Adams-Bashforth extrapolation on Gt */
(PID.TID 0000.0001)                   T
(PID.TID 0000.0001)     ;
(PID.TID 0000.0001) AdamsBashforth_T = /* apply Adams-Bashforth extrapolation on Temp */
(PID.TID 0000.0001)                   F
(PID.TID 0000.0001)     ;
(PID.TID 0000.0001) saltAdvScheme =   /* Salt. Horiz.advection scheme selector */
(PID.TID 0000.0001)                       2
(PID.TID 0000.0001)     ;
(PID.TID 0000.0001) saltVertAdvScheme =   /* Salt. Vert. Advection scheme selector */
(PID.TID 0000.0001)                       2
(PID.TID 0000.0001)     ;
(PID.TID 0000.0001) saltMultiDimAdvec =   /* use Muti-Dim Advec method for Salt */
(PID.TID 0000.0001)                   F
(PID.TID 0000.0001)     ;
(PID.TID 0000.0001) saltSOM_Advection = /* use 2nd Order Moment Advection for Salt */
(PID.TID 0000.0001)                   F
(PID.TID 0000.0001)     ;
(PID.TID 0000.0001) AdamsBashforthGs = /* apply Adams-Bashforth extrapolation on Gs */
(PID.TID 0000.0001)                   F
(PID.TID 0000.0001)     ;
(PID.TID 0000.0001) AdamsBashforth_S = /* apply Adams-Bashforth extrapolation on Salt */
(PID.TID 0000.0001)                   F
(PID.TID 0000.0001)     ;
(PID.TID 0000.0001) // ===================================
(PID.TID 0000.0001) %MON fCori_max                    =   0.0000000000000E+00
(PID.TID 0000.0001) %MON fCori_min                    =   0.0000000000000E+00
(PID.TID 0000.0001) %MON fCori_mean                   =   0.0000000000000E+00
(PID.TID 0000.0001) %MON fCori_sd                     =   0.0000000000000E+00
(PID.TID 0000.0001) %MON fCoriG_max                   =   0.0000000000000E+00
(PID.TID 0000.0001) %MON fCoriG_min                   =   0.0000000000000E+00
(PID.TID 0000.0001) %MON fCoriG_mean                  =   0.0000000000000E+00
(PID.TID 0000.0001) %MON fCoriG_sd                    =   0.0000000000000E+00
(PID.TID 0000.0001) %MON fCoriCos_max                 =   0.0000000000000E+00
(PID.TID 0000.0001) %MON fCoriCos_min                 =   0.0000000000000E+00
(PID.TID 0000.0001) %MON fCoriCos_mean                =   0.0000000000000E+00
(PID.TID 0000.0001) %MON fCoriCos_sd                  =   0.0000000000000E+00
(PID.TID 0000.0001) INI_CG2D: CG2D normalisation factor =  8.7213114754098383E-04
(PID.TID 0000.0001) 
(PID.TID 0000.0001) // =======================================================
(PID.TID 0000.0001) // Model configuration
(PID.TID 0000.0001) // =======================================================
(PID.TID 0000.0001) //
(PID.TID 0000.0001) // "Physical" paramters ( PARM01 in namelist )
(PID.TID 0000.0001) //
(PID.TID 0000.0001) buoyancyRelation = /* Type of relation to get Buoyancy */
(PID.TID 0000.0001)               'OCEANIC'
(PID.TID 0000.0001)     ;
(PID.TID 0000.0001) fluidIsAir   =  /* fluid major constituent is Air */
(PID.TID 0000.0001)                   F
(PID.TID 0000.0001)     ;
(PID.TID 0000.0001) fluidIsWater =  /* fluid major constituent is Water */
(PID.TID 0000.0001)                   T
(PID.TID 0000.0001)     ;
(PID.TID 0000.0001) usingPCoords =  /* use p (or p*) vertical coordinate */
(PID.TID 0000.0001)                   F
(PID.TID 0000.0001)     ;
(PID.TID 0000.0001) usingZCoords =  /* use z (or z*) vertical coordinate */
(PID.TID 0000.0001)                   T
(PID.TID 0000.0001)     ;
(PID.TID 0000.0001) tRef =   /* Reference temperature profile ( oC or K ) */
(PID.TID 0000.0001)                 4.842000000000000E-02,      /* K =  1 */
(PID.TID 0000.0001)                 4.332310000000000E-02,      /* K =  2 */
(PID.TID 0000.0001)                 3.822630000000000E-02,      /* K =  3 */
(PID.TID 0000.0001)                 3.312950000000000E-02,      /* K =  4 */
(PID.TID 0000.0001)                 2.803260000000000E-02,      /* K =  5 */
(PID.TID 0000.0001)                 2.293580000000000E-02,      /* K =  6 */
(PID.TID 0000.0001)                 1.783890000000000E-02,      /* K =  7 */
(PID.TID 0000.0001)                 1.274210000000000E-02,      /* K =  8 */
(PID.TID 0000.0001)                 7.645260000000000E-03,      /* K =  9 */
(PID.TID 0000.0001)                 2.548420000000000E-03,      /* K = 10 */
(PID.TID 0000.0001)                -2.548420000000000E-03,      /* K = 11 */
(PID.TID 0000.0001)                -7.645260000000000E-03,      /* K = 12 */
(PID.TID 0000.0001)                -1.274210000000000E-02,      /* K = 13 */
(PID.TID 0000.0001)                -1.783890000000000E-02,      /* K = 14 */
(PID.TID 0000.0001)                -2.293580000000000E-02,      /* K = 15 */
(PID.TID 0000.0001)                -2.803260000000000E-02,      /* K = 16 */
(PID.TID 0000.0001)                -3.312950000000000E-02,      /* K = 17 */
(PID.TID 0000.0001)                -3.822630000000000E-02,      /* K = 18 */
(PID.TID 0000.0001)                -4.332310000000000E-02,      /* K = 19 */
(PID.TID 0000.0001)                -4.842000000000000E-02       /* K = 20 */
(PID.TID 0000.0001)     ;
(PID.TID 0000.0001) sRef =   /* Reference salinity profile ( psu ) */
(PID.TID 0000.0001)    20 @  3.500000000000000E+01              /* K =  1: 20 */
(PID.TID 0000.0001)     ;
(PID.TID 0000.0001) useStrainTensionVisc= /* Use StrainTension Form of Viscous Operator */
(PID.TID 0000.0001)                   F
(PID.TID 0000.0001)     ;
(PID.TID 0000.0001) useVariableVisc = /* Use variable horizontal viscosity */
(PID.TID 0000.0001)                   F
(PID.TID 0000.0001)     ;
(PID.TID 0000.0001) useHarmonicVisc = /* Use harmonic horizontal viscosity */
(PID.TID 0000.0001)                   T
(PID.TID 0000.0001)     ;
(PID.TID 0000.0001) useBiharmonicVisc= /* Use biharmonic horiz.  viscosity */
(PID.TID 0000.0001)                   F
(PID.TID 0000.0001)     ;
(PID.TID 0000.0001) useSmag3D = /* Use isotropic 3-D Smagorinsky viscosity */
(PID.TID 0000.0001)                   F
(PID.TID 0000.0001)     ;
(PID.TID 0000.0001) viscAh  =   /* Lateral harmonic viscosity ( m^2/s ) */
(PID.TID 0000.0001)                 1.000000000000000E-05
(PID.TID 0000.0001)     ;
(PID.TID 0000.0001) viscA4  =   /* Lateral biharmonic viscosity ( m^4/s ) */
(PID.TID 0000.0001)                 0.000000000000000E+00
(PID.TID 0000.0001)     ;
(PID.TID 0000.0001) no_slip_sides =  /* Viscous BCs: No-slip sides */
(PID.TID 0000.0001)                   F
(PID.TID 0000.0001)     ;
(PID.TID 0000.0001) sideDragFactor = /* side-drag scaling factor (non-dim) */
(PID.TID 0000.0001)                 2.000000000000000E+00
(PID.TID 0000.0001)     ;
(PID.TID 0000.0001) viscArNr = /* vertical profile of vertical viscosity ( m^2/s )*/
(PID.TID 0000.0001)    20 @  1.000000000000000E-05              /* K =  1: 20 */
(PID.TID 0000.0001)     ;
(PID.TID 0000.0001) no_slip_bottom =  /* Viscous BCs: No-slip bottom */
(PID.TID 0000.0001)                   F
(PID.TID 0000.0001)     ;
(PID.TID 0000.0001) bottomDragLinear = /* linear bottom-drag coefficient ( m/s ) */
(PID.TID 0000.0001)                 0.000000000000000E+00
(PID.TID 0000.0001)     ;
(PID.TID 0000.0001) bottomDragQuadratic = /* quadratic bottom-drag coefficient (-) */
(PID.TID 0000.0001)                 0.000000000000000E+00
(PID.TID 0000.0001)     ;
(PID.TID 0000.0001) diffKhT =   /* Laplacian diffusion of heat laterally ( m^2/s ) */
(PID.TID 0000.0001)                 1.000000000000000E-05
(PID.TID 0000.0001)     ;
(PID.TID 0000.0001) diffK4T =   /* Biharmonic diffusion of heat laterally ( m^4/s ) */
(PID.TID 0000.0001)                 0.000000000000000E+00
(PID.TID 0000.0001)     ;
(PID.TID 0000.0001) diffKhS =   /* Laplacian diffusion of salt laterally ( m^2/s ) */
(PID.TID 0000.0001)                 0.000000000000000E+00
(PID.TID 0000.0001)     ;
(PID.TID 0000.0001) diffK4S =   /* Biharmonic diffusion of salt laterally ( m^4/s ) */
(PID.TID 0000.0001)                 0.000000000000000E+00
(PID.TID 0000.0001)     ;
(PID.TID 0000.0001) diffKrNrT = /* vertical profile of vertical diffusion of Temp ( m^2/s )*/
(PID.TID 0000.0001)    20 @  1.000000000000000E-05              /* K =  1: 20 */
(PID.TID 0000.0001)     ;
(PID.TID 0000.0001) diffKrNrS = /* vertical profile of vertical diffusion of Salt ( m^2/s )*/
(PID.TID 0000.0001)    20 @  0.000000000000000E+00              /* K =  1: 20 */
(PID.TID 0000.0001)     ;
(PID.TID 0000.0001) diffKrBL79surf = /* Surface diffusion for Bryan and Lewis 79 ( m^2/s ) */
(PID.TID 0000.0001)                 0.000000000000000E+00
(PID.TID 0000.0001)     ;
(PID.TID 0000.0001) diffKrBL79deep = /* Deep diffusion for Bryan and Lewis 1979 ( m^2/s ) */
(PID.TID 0000.0001)                 0.000000000000000E+00
(PID.TID 0000.0001)     ;
(PID.TID 0000.0001) diffKrBL79scl = /* Depth scale for Bryan and Lewis 1979 ( m ) */
(PID.TID 0000.0001)                 2.000000000000000E+02
(PID.TID 0000.0001)     ;
(PID.TID 0000.0001) diffKrBL79Ho = /* Turning depth for Bryan and Lewis 1979 ( m ) */
(PID.TID 0000.0001)                -2.000000000000000E+03
(PID.TID 0000.0001)     ;
(PID.TID 0000.0001) ivdc_kappa = /* Implicit Vertical Diffusivity for Convection ( m^2/s) */
(PID.TID 0000.0001)                 0.000000000000000E+00
(PID.TID 0000.0001)     ;
(PID.TID 0000.0001) hMixCriteria=  /* Criteria for mixed-layer diagnostic */
(PID.TID 0000.0001)                -8.000000000000000E-01
(PID.TID 0000.0001)     ;
(PID.TID 0000.0001) dRhoSmall =  /* Parameter for mixed-layer diagnostic */
(PID.TID 0000.0001)                 1.000000000000000E-06
(PID.TID 0000.0001)     ;
(PID.TID 0000.0001) hMixSmooth=  /* Smoothing parameter for mixed-layer diagnostic */
(PID.TID 0000.0001)                 0.000000000000000E+00
(PID.TID 0000.0001)     ;
(PID.TID 0000.0001) eosType =  /* Type of Equation of State */
(PID.TID 0000.0001)               'LINEAR'
(PID.TID 0000.0001)     ;
(PID.TID 0000.0001) tAlpha = /* Linear EOS thermal expansion coefficient ( 1/oC ) */
(PID.TID 0000.0001)                 2.000000000000000E-04
(PID.TID 0000.0001)     ;
(PID.TID 0000.0001) sBeta  = /* Linear EOS haline contraction coefficient ( 1/psu ) */
(PID.TID 0000.0001)                 0.000000000000000E+00
(PID.TID 0000.0001)     ;
(PID.TID 0000.0001) rhoNil    = /* Reference density for Linear EOS ( kg/m^3 ) */
(PID.TID 0000.0001)                 9.998000000000000E+02
(PID.TID 0000.0001)     ;
(PID.TID 0000.0001) HeatCapacity_Cp =  /* Specific heat capacity ( J/kg/K ) */
(PID.TID 0000.0001)                 3.994000000000000E+03
(PID.TID 0000.0001)     ;
(PID.TID 0000.0001) celsius2K = /* 0 degree Celsius converted to Kelvin ( K ) */
(PID.TID 0000.0001)                 2.731500000000000E+02
(PID.TID 0000.0001)     ;
(PID.TID 0000.0001) rhoConst  = /* Reference density (Boussinesq)  ( kg/m^3 ) */
(PID.TID 0000.0001)                 9.998000000000000E+02
(PID.TID 0000.0001)     ;
(PID.TID 0000.0001) rhoFacC = /* normalized Reference density @ cell-Center (-) */
(PID.TID 0000.0001)    20 @  1.000000000000000E+00              /* K =  1: 20 */
(PID.TID 0000.0001)     ;
(PID.TID 0000.0001) rhoFacF = /* normalized Reference density @ W-Interface (-) */
(PID.TID 0000.0001)    21 @  1.000000000000000E+00              /* K =  1: 21 */
(PID.TID 0000.0001)     ;
(PID.TID 0000.0001) rhoConstFresh = /* Fresh-water reference density ( kg/m^3 ) */
(PID.TID 0000.0001)                 9.998000000000000E+02
(PID.TID 0000.0001)     ;
(PID.TID 0000.0001) gravity =   /* Gravitational acceleration ( m/s^2 ) */
(PID.TID 0000.0001)                 9.810000000000000E+00
(PID.TID 0000.0001)     ;
(PID.TID 0000.0001) gBaro =   /* Barotropic gravity ( m/s^2 ) */
(PID.TID 0000.0001)                 9.810000000000000E+00
(PID.TID 0000.0001)     ;
(PID.TID 0000.0001) rotationPeriod =   /* Rotation Period ( s ) */
(PID.TID 0000.0001)                 8.616400000000000E+04
(PID.TID 0000.0001)     ;
(PID.TID 0000.0001) omega =   /* Angular velocity ( rad/s ) */
(PID.TID 0000.0001)                 7.292123516990375E-05
(PID.TID 0000.0001)     ;
(PID.TID 0000.0001) f0 =   /* Reference coriolis parameter ( 1/s ) */
(PID.TID 0000.0001)                 0.000000000000000E+00
(PID.TID 0000.0001)     ;
(PID.TID 0000.0001) beta =   /* Beta ( 1/(m.s) ) */
(PID.TID 0000.0001)                 0.000000000000000E+00
(PID.TID 0000.0001)     ;
(PID.TID 0000.0001) fPrime =   /* Second coriolis parameter ( 1/s ) */
(PID.TID 0000.0001)                 0.000000000000000E+00
(PID.TID 0000.0001)     ;
(PID.TID 0000.0001) rigidLid =   /* Rigid lid on/off flag */
(PID.TID 0000.0001)                   F
(PID.TID 0000.0001)     ;
(PID.TID 0000.0001) implicitFreeSurface =   /* Implicit free surface on/off flag */
(PID.TID 0000.0001)                   T
(PID.TID 0000.0001)     ;
(PID.TID 0000.0001) freeSurfFac =   /* Implicit free surface factor */
(PID.TID 0000.0001)                 1.000000000000000E+00
(PID.TID 0000.0001)     ;
(PID.TID 0000.0001) implicSurfPress =  /* Surface Pressure implicit factor (0-1)*/
(PID.TID 0000.0001)                 5.000000000000000E-01
(PID.TID 0000.0001)     ;
(PID.TID 0000.0001) implicDiv2Dflow =  /* Barot. Flow Div. implicit factor (0-1)*/
(PID.TID 0000.0001)                 5.000000000000000E-01
(PID.TID 0000.0001)     ;
(PID.TID 0000.0001) uniformLin_PhiSurf = /* use uniform Bo_surf on/off flag*/
(PID.TID 0000.0001)                   T
(PID.TID 0000.0001)     ;
(PID.TID 0000.0001) uniformFreeSurfLev = /* free-surface level-index is uniform */
(PID.TID 0000.0001)                   T
(PID.TID 0000.0001)     ;
(PID.TID 0000.0001) hFacMin =   /* minimum partial cell factor (hFac) */
(PID.TID 0000.0001)                 2.000000000000000E-01
(PID.TID 0000.0001)     ;
(PID.TID 0000.0001) hFacMinDr = /* minimum partial cell thickness ( m) */
(PID.TID 0000.0001)                 0.000000000000000E+00
(PID.TID 0000.0001)     ;
(PID.TID 0000.0001) exactConserv =  /* Exact Volume Conservation on/off flag*/
(PID.TID 0000.0001)                   T
(PID.TID 0000.0001)     ;
(PID.TID 0000.0001) linFSConserveTr = /* Tracer correction for Lin Free Surface on/off flag*/
(PID.TID 0000.0001)                   F
(PID.TID 0000.0001)     ;
(PID.TID 0000.0001) nonlinFreeSurf = /* Non-linear Free Surf. options (-1,0,1,2,3)*/
(PID.TID 0000.0001)                       3
(PID.TID 0000.0001)      -1,0= Off ; 1,2,3= On, 2=+rescale gU,gV, 3=+update cg2d solv.
(PID.TID 0000.0001)     ;
(PID.TID 0000.0001) hFacInf =   /* lower threshold for hFac (nonlinFreeSurf only)*/
(PID.TID 0000.0001)                 2.000000000000000E-01
(PID.TID 0000.0001)     ;
(PID.TID 0000.0001) hFacSup =   /* upper threshold for hFac (nonlinFreeSurf only)*/
(PID.TID 0000.0001)                 1.800000000000000E+00
(PID.TID 0000.0001)     ;
(PID.TID 0000.0001) select_rStar = /* r* Vertical coord. options (=0 r coord.; >0 uses r*)*/
(PID.TID 0000.0001)                       0
(PID.TID 0000.0001)     ;
(PID.TID 0000.0001) useRealFreshWaterFlux = /* Real Fresh Water Flux on/off flag*/
(PID.TID 0000.0001)                   F
(PID.TID 0000.0001)     ;
(PID.TID 0000.0001) temp_EvPrRn = /* Temp. of Evap/Prec/R (UNSET=use local T)(oC)*/
(PID.TID 0000.0001)                 1.234567000000000E+05
(PID.TID 0000.0001)     ;
(PID.TID 0000.0001) salt_EvPrRn = /* Salin. of Evap/Prec/R (UNSET=use local S)(psu)*/
(PID.TID 0000.0001)                 0.000000000000000E+00
(PID.TID 0000.0001)     ;
(PID.TID 0000.0001) selectAddFluid = /* option for mass source/sink of fluid (=0: off) */
(PID.TID 0000.0001)                       0
(PID.TID 0000.0001)     ;
(PID.TID 0000.0001) temp_addMass = /* Temp. of addMass array (UNSET=use local T)(oC)*/
(PID.TID 0000.0001)                 1.234567000000000E+05
(PID.TID 0000.0001)     ;
(PID.TID 0000.0001) salt_addMass = /* Salin. of addMass array (UNSET=use local S)(psu)*/
(PID.TID 0000.0001)                 0.000000000000000E+00
(PID.TID 0000.0001)     ;
(PID.TID 0000.0001) convertFW2Salt = /* convert F.W. Flux to Salt Flux (-1=use local S)(psu)*/
(PID.TID 0000.0001)                 3.500000000000000E+01
(PID.TID 0000.0001)     ;
(PID.TID 0000.0001) use3Dsolver = /* use 3-D pressure solver on/off flag */
(PID.TID 0000.0001)                   F
(PID.TID 0000.0001)     ;
(PID.TID 0000.0001) nonHydrostatic =  /* Non-Hydrostatic on/off flag */
(PID.TID 0000.0001)                   F
(PID.TID 0000.0001)     ;
(PID.TID 0000.0001) nh_Am2 = /* Non-Hydrostatic terms scaling factor */
(PID.TID 0000.0001)                 1.000000000000000E+00
(PID.TID 0000.0001)     ;
(PID.TID 0000.0001) implicitNHPress = /* Non-Hyd Pressure implicit factor (0-1)*/
(PID.TID 0000.0001)                 5.000000000000000E-01
(PID.TID 0000.0001)     ;
(PID.TID 0000.0001) selectNHfreeSurf = /* Non-Hyd (free-)Surface option */
(PID.TID 0000.0001)                       0
(PID.TID 0000.0001)     ;
(PID.TID 0000.0001) quasiHydrostatic = /* Quasi-Hydrostatic on/off flag */
(PID.TID 0000.0001)                   F
(PID.TID 0000.0001)     ;
(PID.TID 0000.0001) calc_wVelocity = /* vertical velocity calculation on/off flag */
(PID.TID 0000.0001)                   T
(PID.TID 0000.0001)     ;
(PID.TID 0000.0001) momStepping =  /* Momentum equation on/off flag */
(PID.TID 0000.0001)                   T
(PID.TID 0000.0001)     ;
(PID.TID 0000.0001) vectorInvariantMomentum= /* Vector-Invariant Momentum on/off */
(PID.TID 0000.0001)                   F
(PID.TID 0000.0001)     ;
(PID.TID 0000.0001) momAdvection =  /* Momentum advection on/off flag */
(PID.TID 0000.0001)                   T
(PID.TID 0000.0001)     ;
(PID.TID 0000.0001) momViscosity =  /* Momentum viscosity on/off flag */
(PID.TID 0000.0001)                   T
(PID.TID 0000.0001)     ;
(PID.TID 0000.0001) momImplVertAdv= /* Momentum implicit vert. advection on/off*/
(PID.TID 0000.0001)                   F
(PID.TID 0000.0001)     ;
(PID.TID 0000.0001) implicitViscosity = /* Implicit viscosity on/off flag */
(PID.TID 0000.0001)                   T
(PID.TID 0000.0001)     ;
(PID.TID 0000.0001) metricTerms =  /* metric-Terms on/off flag */
(PID.TID 0000.0001)                   F
(PID.TID 0000.0001)     ;
(PID.TID 0000.0001) useNHMTerms = /* Non-Hydrostatic Metric-Terms on/off */
(PID.TID 0000.0001)                   F
(PID.TID 0000.0001)     ;
(PID.TID 0000.0001) selectCoriMap = /* Coriolis Map options (0,1,2,3)*/
(PID.TID 0000.0001)                       1
(PID.TID 0000.0001)     0= f-Plane ; 1= Beta-Plane ; 2= Spherical ; 3= read from file
(PID.TID 0000.0001)     ;
(PID.TID 0000.0001) use3dCoriolis = /* 3-D Coriolis on/off flag */
(PID.TID 0000.0001)                   F
(PID.TID 0000.0001)     ;
(PID.TID 0000.0001) useCoriolis =  /* Coriolis on/off flag */
(PID.TID 0000.0001)                   T
(PID.TID 0000.0001)     ;
(PID.TID 0000.0001) useCDscheme =  /* CD scheme on/off flag */
(PID.TID 0000.0001)                   F
(PID.TID 0000.0001)     ;
(PID.TID 0000.0001) useEnergyConservingCoriolis= /* Flx-Form Coriolis scheme flag */
(PID.TID 0000.0001)                   F
(PID.TID 0000.0001)     ;
(PID.TID 0000.0001) useJamartWetPoints= /* Coriolis WetPoints method flag */
(PID.TID 0000.0001)                   F
(PID.TID 0000.0001)     ;
(PID.TID 0000.0001) useJamartMomAdv= /* V.I Non-linear terms Jamart flag */
(PID.TID 0000.0001)                   F
(PID.TID 0000.0001)     ;
(PID.TID 0000.0001) useAbsVorticity= /* V.I Works with f+zeta in Coriolis */
(PID.TID 0000.0001)                   F
(PID.TID 0000.0001)     ;
(PID.TID 0000.0001) selectVortScheme= /* V.I Scheme selector for Vorticity-Term */
(PID.TID 0000.0001)               123456789
(PID.TID 0000.0001)    = 0 : enstrophy (Shallow-Water Eq.) conserving scheme by Sadourny, JAS 75
(PID.TID 0000.0001)    = 1 : same as 0 with modified hFac
(PID.TID 0000.0001)    = 2 : energy conserving scheme (used by Sadourny in JAS 75 paper)
(PID.TID 0000.0001)    = 3 : energy (general) and enstrophy (2D, nonDiv.) conserving scheme
(PID.TID 0000.0001)          from Sadourny (Burridge & Haseler, ECMWF Rep.4, 1977)
(PID.TID 0000.0001)     ;
(PID.TID 0000.0001) upwindVorticity= /* V.I Upwind bias vorticity flag */
(PID.TID 0000.0001)                   F
(PID.TID 0000.0001)     ;
(PID.TID 0000.0001) highOrderVorticity= /* V.I High order vort. advect. flag */
(PID.TID 0000.0001)                   F
(PID.TID 0000.0001)     ;
(PID.TID 0000.0001) upwindShear= /* V.I Upwind vertical Shear advection flag */
(PID.TID 0000.0001)                   F
(PID.TID 0000.0001)     ;
(PID.TID 0000.0001) selectKEscheme= /* V.I Kinetic Energy scheme selector */
(PID.TID 0000.0001)                       0
(PID.TID 0000.0001)     ;
(PID.TID 0000.0001) momForcing =  /* Momentum forcing on/off flag */
(PID.TID 0000.0001)                   T
(PID.TID 0000.0001)     ;
(PID.TID 0000.0001) momPressureForcing =  /* Momentum pressure term on/off flag */
(PID.TID 0000.0001)                   T
(PID.TID 0000.0001)     ;
(PID.TID 0000.0001) implicitIntGravWave= /* Implicit Internal Gravity Wave flag */
(PID.TID 0000.0001)                   F
(PID.TID 0000.0001)     ;
(PID.TID 0000.0001) staggerTimeStep =    /* Stagger time stepping on/off flag */
(PID.TID 0000.0001)                   F
(PID.TID 0000.0001)     ;
(PID.TID 0000.0001) doResetHFactors = /* reset thickness factors @ each time-step */
(PID.TID 0000.0001)                   F
(PID.TID 0000.0001)     ;
(PID.TID 0000.0001) multiDimAdvection =  /* enable/disable Multi-Dim Advection */
(PID.TID 0000.0001)                   T
(PID.TID 0000.0001)     ;
(PID.TID 0000.0001) useMultiDimAdvec =   /* Multi-Dim Advection is/is-not used */
(PID.TID 0000.0001)                   F
(PID.TID 0000.0001)     ;
(PID.TID 0000.0001) implicitDiffusion = /* Implicit Diffusion on/off flag */
(PID.TID 0000.0001)                   T
(PID.TID 0000.0001)     ;
(PID.TID 0000.0001) tempStepping =  /* Temperature equation on/off flag */
(PID.TID 0000.0001)                   T
(PID.TID 0000.0001)     ;
(PID.TID 0000.0001) tempAdvection = /* Temperature advection on/off flag */
(PID.TID 0000.0001)                   T
(PID.TID 0000.0001)     ;
(PID.TID 0000.0001) tempImplVertAdv = /* Temp. implicit vert. advection on/off */
(PID.TID 0000.0001)                   F
(PID.TID 0000.0001)     ;
(PID.TID 0000.0001) tempForcing  =  /* Temperature forcing on/off flag */
(PID.TID 0000.0001)                   T
(PID.TID 0000.0001)     ;
(PID.TID 0000.0001) doThetaClimRelax = /* apply SST relaxation on/off flag */
(PID.TID 0000.0001)                   F
(PID.TID 0000.0001)     ;
(PID.TID 0000.0001) tempIsActiveTr = /* Temp. is a dynamically Active Tracer */
(PID.TID 0000.0001)                   T
(PID.TID 0000.0001)     ;
(PID.TID 0000.0001) saltStepping =  /* Salinity equation on/off flag */
(PID.TID 0000.0001)                   F
(PID.TID 0000.0001)     ;
(PID.TID 0000.0001) saltAdvection = /* Salinity advection on/off flag */
(PID.TID 0000.0001)                   F
(PID.TID 0000.0001)     ;
(PID.TID 0000.0001) saltImplVertAdv = /* Sali. implicit vert. advection on/off */
(PID.TID 0000.0001)                   F
(PID.TID 0000.0001)     ;
(PID.TID 0000.0001) saltForcing  =  /* Salinity forcing on/off flag */
(PID.TID 0000.0001)                   F
(PID.TID 0000.0001)     ;
(PID.TID 0000.0001) doSaltClimRelax = /* apply SSS relaxation on/off flag */
(PID.TID 0000.0001)                   F
(PID.TID 0000.0001)     ;
(PID.TID 0000.0001) saltIsActiveTr = /* Salt  is a dynamically Active Tracer */
(PID.TID 0000.0001)                   F
(PID.TID 0000.0001)     ;
(PID.TID 0000.0001)  readBinaryPrec = /* Precision used for reading binary files */
(PID.TID 0000.0001)                      64
(PID.TID 0000.0001)     ;
(PID.TID 0000.0001) writeBinaryPrec = /* Precision used for writing binary files */
(PID.TID 0000.0001)                      64
(PID.TID 0000.0001)     ;
(PID.TID 0000.0001)  globalFiles = /* write "global" (=not per tile) files */
(PID.TID 0000.0001)                   F
(PID.TID 0000.0001)     ;
(PID.TID 0000.0001)  useSingleCpuIO = /* only master MPI process does I/O */
(PID.TID 0000.0001)                   F
(PID.TID 0000.0001)     ;
(PID.TID 0000.0001)  useSingleCpuInput = /* only master process reads input */
(PID.TID 0000.0001)                   F
(PID.TID 0000.0001)     ;
(PID.TID 0000.0001) /* debLev[*]  : level of debug & auxiliary message printing */
(PID.TID 0000.0001) debLevZero =  0 ; /* level of disabled aux. msg printing */
(PID.TID 0000.0001)    debLevA =  1 ; /* level of minimum  aux. msg printing */
(PID.TID 0000.0001)    debLevB =  2 ; /* level of low aux. print (report read-file opening)*/
(PID.TID 0000.0001)    debLevC =  3 ; /* level of moderate debug prt (most pkgs debug msg) */
(PID.TID 0000.0001)    debLevD =  4 ; /* level of enhanced debug prt (add DEBUG_STATS prt) */
(PID.TID 0000.0001)    debLevE =  5 ; /* level of extensive debug printing */
(PID.TID 0000.0001) debugLevel =  /* select debug printing level */
(PID.TID 0000.0001)                       2
(PID.TID 0000.0001)     ;
(PID.TID 0000.0001) //
(PID.TID 0000.0001) // Elliptic solver(s) paramters ( PARM02 in namelist )
(PID.TID 0000.0001) //
(PID.TID 0000.0001) cg2dMaxIters =   /* Upper limit on 2d con. grad iterations  */
(PID.TID 0000.0001)                    1000
(PID.TID 0000.0001)     ;
(PID.TID 0000.0001) cg2dChkResFreq =   /* 2d con. grad convergence test frequency */
(PID.TID 0000.0001)                       1
(PID.TID 0000.0001)     ;
(PID.TID 0000.0001) cg2dUseMinResSol= /* use cg2d last-iter(=0) / min-resid.(=1) solution */
(PID.TID 0000.0001)                       0
(PID.TID 0000.0001)     ;
(PID.TID 0000.0001) cg2dTargetResidual =   /* 2d con. grad target residual  */
(PID.TID 0000.0001)                 1.000000000000000E-13
(PID.TID 0000.0001)     ;
(PID.TID 0000.0001) cg2dTargetResWunit =   /* CG2d target residual [W units] */
(PID.TID 0000.0001)                -1.000000000000000E+00
(PID.TID 0000.0001)     ;
(PID.TID 0000.0001) cg2dPreCondFreq =   /* Freq. for updating cg2d preconditioner */
(PID.TID 0000.0001)                       1
(PID.TID 0000.0001)     ;
(PID.TID 0000.0001) useSRCGSolver =  /* use single reduction CG solver(s) */
(PID.TID 0000.0001)                   F
(PID.TID 0000.0001)     ;
(PID.TID 0000.0001) printResidualFreq = /* Freq. for printing CG residual */
(PID.TID 0000.0001)                       0
(PID.TID 0000.0001)     ;
(PID.TID 0000.0001) //
(PID.TID 0000.0001) // Time stepping paramters ( PARM03 in namelist )
(PID.TID 0000.0001) //
(PID.TID 0000.0001) deltaTMom =   /* Momentum equation timestep ( s ) */
(PID.TID 0000.0001)                 4.500000000000000E+02
(PID.TID 0000.0001)     ;
(PID.TID 0000.0001) deltaTFreeSurf = /* FreeSurface equation timestep ( s ) */
(PID.TID 0000.0001)                 4.500000000000000E+02
(PID.TID 0000.0001)     ;
(PID.TID 0000.0001) dTtracerLev =  /* Tracer equation timestep ( s ) */
(PID.TID 0000.0001)    20 @  4.500000000000000E+02              /* K =  1: 20 */
(PID.TID 0000.0001)     ;
(PID.TID 0000.0001) deltaTClock  =   /* Model clock timestep ( s ) */
(PID.TID 0000.0001)                 4.500000000000000E+02
(PID.TID 0000.0001)     ;
(PID.TID 0000.0001) cAdjFreq =   /* Convective adjustment interval ( s ) */
(PID.TID 0000.0001)                 0.000000000000000E+00
(PID.TID 0000.0001)     ;
(PID.TID 0000.0001) momForcingOutAB = /* =1: take Momentum Forcing out of Adams-Bash. stepping */
(PID.TID 0000.0001)                       0
(PID.TID 0000.0001)     ;
(PID.TID 0000.0001) tracForcingOutAB = /* =1: take T,S,pTr Forcing out of Adams-Bash. stepping */
(PID.TID 0000.0001)                       0
(PID.TID 0000.0001)     ;
(PID.TID 0000.0001) momDissip_In_AB = /* put Dissipation Tendency in Adams-Bash. stepping */
(PID.TID 0000.0001)                   T
(PID.TID 0000.0001)     ;
(PID.TID 0000.0001) doAB_onGtGs = /* apply AB on Tendencies (rather than on T,S)*/
(PID.TID 0000.0001)                   T
(PID.TID 0000.0001)     ;
(PID.TID 0000.0001) abEps =   /* Adams-Bashforth-2 stabilizing weight */
(PID.TID 0000.0001)                 1.000000000000000E-01
(PID.TID 0000.0001)     ;
(PID.TID 0000.0001) pickupStrictlyMatch= /* stop if pickup do not strictly match */
(PID.TID 0000.0001)                   T
(PID.TID 0000.0001)     ;
(PID.TID 0000.0001) nIter0   =   /* Run starting timestep number */
(PID.TID 0000.0001)                       0
(PID.TID 0000.0001)     ;
(PID.TID 0000.0001) nTimeSteps = /* Number of timesteps */
(PID.TID 0000.0001)                     300
(PID.TID 0000.0001)     ;
(PID.TID 0000.0001) nEndIter =   /* Run ending timestep number */
(PID.TID 0000.0001)                     300
(PID.TID 0000.0001)     ;
(PID.TID 0000.0001) baseTime =   /* Model base time ( s ) */
(PID.TID 0000.0001)                 0.000000000000000E+00
(PID.TID 0000.0001)     ;
(PID.TID 0000.0001) startTime =  /* Run start time ( s ) */
(PID.TID 0000.0001)                 0.000000000000000E+00
(PID.TID 0000.0001)     ;
(PID.TID 0000.0001) endTime  =   /* Integration ending time ( s ) */
(PID.TID 0000.0001)                 1.350000000000000E+05
(PID.TID 0000.0001)     ;
(PID.TID 0000.0001) pChkPtFreq = /* Permanent restart/pickup file interval ( s ) */
(PID.TID 0000.0001)                 0.000000000000000E+00
(PID.TID 0000.0001)     ;
(PID.TID 0000.0001) chkPtFreq  = /* Rolling restart/pickup file interval ( s ) */
(PID.TID 0000.0001)                 0.000000000000000E+00
(PID.TID 0000.0001)     ;
(PID.TID 0000.0001) pickup_write_mdsio =   /* Model IO flag. */
(PID.TID 0000.0001)                   T
(PID.TID 0000.0001)     ;
(PID.TID 0000.0001) pickup_read_mdsio =   /* Model IO flag. */
(PID.TID 0000.0001)                   T
(PID.TID 0000.0001)     ;
(PID.TID 0000.0001) pickup_write_mnc =   /* Model IO flag. */
(PID.TID 0000.0001)                   F
(PID.TID 0000.0001)     ;
(PID.TID 0000.0001) pickup_read_mnc =   /* Model IO flag. */
(PID.TID 0000.0001)                   F
(PID.TID 0000.0001)     ;
(PID.TID 0000.0001) pickup_write_immed =   /* Model IO flag. */
(PID.TID 0000.0001)                   F
(PID.TID 0000.0001)     ;
(PID.TID 0000.0001) writePickupAtEnd =   /* Model IO flag. */
(PID.TID 0000.0001)                   T
(PID.TID 0000.0001)     ;
(PID.TID 0000.0001) dumpFreq =   /* Model state write out interval ( s ). */
(PID.TID 0000.0001)                 8.640000000000000E+04
(PID.TID 0000.0001)     ;
(PID.TID 0000.0001) dumpInitAndLast= /* write out Initial & Last iter. model state */
(PID.TID 0000.0001)                   T
(PID.TID 0000.0001)     ;
(PID.TID 0000.0001) snapshot_mdsio =   /* Model IO flag. */
(PID.TID 0000.0001)                   T
(PID.TID 0000.0001)     ;
(PID.TID 0000.0001) snapshot_mnc =   /* Model IO flag. */
(PID.TID 0000.0001)                   F
(PID.TID 0000.0001)     ;
(PID.TID 0000.0001) monitorFreq =   /* Monitor output interval ( s ). */
(PID.TID 0000.0001)                 7.200000000000000E+03
(PID.TID 0000.0001)     ;
(PID.TID 0000.0001) monitorSelect = /* select group of variables to monitor */
(PID.TID 0000.0001)                       2
(PID.TID 0000.0001)     ;
(PID.TID 0000.0001) monitor_stdio =   /* Model IO flag. */
(PID.TID 0000.0001)                   T
(PID.TID 0000.0001)     ;
(PID.TID 0000.0001) monitor_mnc =   /* Model IO flag. */
(PID.TID 0000.0001)                   F
(PID.TID 0000.0001)     ;
(PID.TID 0000.0001) externForcingPeriod =   /* forcing period (s) */
(PID.TID 0000.0001)                 0.000000000000000E+00
(PID.TID 0000.0001)     ;
(PID.TID 0000.0001) externForcingCycle =   /* period of the cyle (s). */
(PID.TID 0000.0001)                 0.000000000000000E+00
(PID.TID 0000.0001)     ;
(PID.TID 0000.0001) tauThetaClimRelax =   /* relaxation time scale (s) */
(PID.TID 0000.0001)                 0.000000000000000E+00
(PID.TID 0000.0001)     ;
(PID.TID 0000.0001) tauSaltClimRelax =   /* relaxation time scale (s) */
(PID.TID 0000.0001)                 0.000000000000000E+00
(PID.TID 0000.0001)     ;
(PID.TID 0000.0001) latBandClimRelax =   /* max. Lat. where relaxation */
(PID.TID 0000.0001)                 1.500000000000000E+04
(PID.TID 0000.0001)     ;
(PID.TID 0000.0001) //
(PID.TID 0000.0001) // Gridding paramters ( PARM04 in namelist )
(PID.TID 0000.0001) //
(PID.TID 0000.0001) usingCartesianGrid = /* Cartesian coordinates flag ( True/False ) */
(PID.TID 0000.0001)                   T
(PID.TID 0000.0001)     ;
(PID.TID 0000.0001) usingCylindricalGrid = /* Cylindrical coordinates flag ( True/False ) */
(PID.TID 0000.0001)                   F
(PID.TID 0000.0001)     ;
(PID.TID 0000.0001) usingSphericalPolarGrid = /* Spherical coordinates flag ( True/False ) */
(PID.TID 0000.0001)                   F
(PID.TID 0000.0001)     ;
(PID.TID 0000.0001) usingCurvilinearGrid = /* Curvilinear coordinates flag ( True/False ) */
(PID.TID 0000.0001)                   F
(PID.TID 0000.0001)     ;
(PID.TID 0000.0001) selectSigmaCoord = /* Hybrid-Sigma Vert. Coordinate option */
(PID.TID 0000.0001)                       0
(PID.TID 0000.0001)     ;
(PID.TID 0000.0001) Ro_SeaLevel = /* r(1) ( units of r ==  m ) */
(PID.TID 0000.0001)                 0.000000000000000E+00
(PID.TID 0000.0001)     ;
(PID.TID 0000.0001) rSigmaBnd = /* r/sigma transition ( units of r ==  m ) */
(PID.TID 0000.0001)                 1.234567000000000E+05
(PID.TID 0000.0001)     ;
(PID.TID 0000.0001) rkSign =   /* index orientation relative to vertical coordinate */
(PID.TID 0000.0001)                -1.000000000000000E+00
(PID.TID 0000.0001)     ;
(PID.TID 0000.0001) gravitySign = /* gravity orientation relative to vertical coordinate */
(PID.TID 0000.0001)                -1.000000000000000E+00
(PID.TID 0000.0001)     ;
(PID.TID 0000.0001) mass2rUnit = /* convert mass per unit area [kg/m2] to r-units [m] */
(PID.TID 0000.0001)                 1.000200040008002E-03
(PID.TID 0000.0001)     ;
(PID.TID 0000.0001) rUnit2mass = /* convert r-units [m] to mass per unit area [kg/m2] */
(PID.TID 0000.0001)                 9.998000000000000E+02
(PID.TID 0000.0001)     ;
(PID.TID 0000.0001) drC =   /* C spacing ( units of r ) */
(PID.TID 0000.0001)                 5.000000000000000E+00,      /* K =  1 */
(PID.TID 0000.0001)    19 @  1.000000000000000E+01,             /* K =  2: 20 */
(PID.TID 0000.0001)                 5.000000000000000E+00       /* K = 21 */
(PID.TID 0000.0001)     ;
(PID.TID 0000.0001) drF =   /* W spacing ( units of r ) */
(PID.TID 0000.0001)    20 @  1.000000000000000E+01              /* K =  1: 20 */
(PID.TID 0000.0001)     ;
(PID.TID 0000.0001) delX = /* U spacing ( m - cartesian, degrees - spherical ) */
(PID.TID 0000.0001)    60 @  2.180327868852459E+02              /* I =  1: 60 */
(PID.TID 0000.0001)     ;
(PID.TID 0000.0001) delY = /* V spacing ( m - cartesian, degrees - spherical ) */
(PID.TID 0000.0001)                 5.000000000000000E+03       /* J =  1 */
(PID.TID 0000.0001)     ;
(PID.TID 0000.0001) xgOrigin = /* X-axis origin of West  edge (cartesian: m, lat-lon: deg) */
(PID.TID 0000.0001)                 0.000000000000000E+00
(PID.TID 0000.0001)     ;
(PID.TID 0000.0001) ygOrigin = /* Y-axis origin of South edge (cartesian: m, lat-lon: deg) */
(PID.TID 0000.0001)                 0.000000000000000E+00
(PID.TID 0000.0001)     ;
(PID.TID 0000.0001) rSphere =  /* Radius ( ignored - cartesian, m - spherical ) */
(PID.TID 0000.0001)                 6.370000000000000E+06
(PID.TID 0000.0001)     ;
(PID.TID 0000.0001) deepAtmosphere = /* Deep/Shallow Atmosphere flag (True/False) */
(PID.TID 0000.0001)                   F
(PID.TID 0000.0001)     ;
(PID.TID 0000.0001) xC =  /* xC(:,1,:,1) : P-point X coord ( deg. or m if cartesian) */
(PID.TID 0000.0001)                 1.090163934426230E+02,      /* I =  1 */
(PID.TID 0000.0001)                 3.270491803278688E+02,      /* I =  2 */
(PID.TID 0000.0001)                 5.450819672131147E+02,      /* I =  3 */
(PID.TID 0000.0001)                 7.631147540983607E+02,      /* I =  4 */
(PID.TID 0000.0001)                 9.811475409836066E+02,      /* I =  5 */
(PID.TID 0000.0001)                 1.199180327868853E+03,      /* I =  6 */
(PID.TID 0000.0001)                 1.417213114754099E+03,      /* I =  7 */
(PID.TID 0000.0001)                 1.635245901639345E+03,      /* I =  8 */
(PID.TID 0000.0001)                 1.853278688524591E+03,      /* I =  9 */
(PID.TID 0000.0001)                 2.071311475409836E+03,      /* I = 10 */
(PID.TID 0000.0001)                 2.289344262295082E+03,      /* I = 11 */
(PID.TID 0000.0001)                 2.507377049180328E+03,      /* I = 12 */
(PID.TID 0000.0001)                 2.725409836065574E+03,      /* I = 13 */
(PID.TID 0000.0001)                 2.943442622950820E+03,      /* I = 14 */
(PID.TID 0000.0001)                 3.161475409836066E+03,      /* I = 15 */
(PID.TID 0000.0001)                 3.379508196721312E+03,      /* I = 16 */
(PID.TID 0000.0001)                 3.597540983606558E+03,      /* I = 17 */
(PID.TID 0000.0001)                 3.815573770491804E+03,      /* I = 18 */
(PID.TID 0000.0001)                 4.033606557377050E+03,      /* I = 19 */
(PID.TID 0000.0001)                 4.251639344262296E+03,      /* I = 20 */
(PID.TID 0000.0001)                 4.469672131147541E+03,      /* I = 21 */
(PID.TID 0000.0001)                 4.687704918032787E+03,      /* I = 22 */
(PID.TID 0000.0001)                 4.905737704918032E+03,      /* I = 23 */
(PID.TID 0000.0001)                 5.123770491803278E+03,      /* I = 24 */
(PID.TID 0000.0001)                 5.341803278688523E+03,      /* I = 25 */
(PID.TID 0000.0001)                 5.559836065573769E+03,      /* I = 26 */
(PID.TID 0000.0001)                 5.777868852459014E+03,      /* I = 27 */
(PID.TID 0000.0001)                 5.995901639344260E+03,      /* I = 28 */
(PID.TID 0000.0001)                 6.213934426229505E+03,      /* I = 29 */
(PID.TID 0000.0001)                 6.431967213114751E+03,      /* I = 30 */
(PID.TID 0000.0001)                 6.649999999999996E+03,      /* I = 31 */
(PID.TID 0000.0001)                 6.868032786885242E+03,      /* I = 32 */
(PID.TID 0000.0001)                 7.086065573770487E+03,      /* I = 33 */
(PID.TID 0000.0001)                 7.304098360655733E+03,      /* I = 34 */
(PID.TID 0000.0001)                 7.522131147540978E+03,      /* I = 35 */
(PID.TID 0000.0001)                 7.740163934426224E+03,      /* I = 36 */
(PID.TID 0000.0001)                 7.958196721311469E+03,      /* I = 37 */
(PID.TID 0000.0001)                 8.176229508196715E+03,      /* I = 38 */
(PID.TID 0000.0001)                 8.394262295081960E+03,      /* I = 39 */
(PID.TID 0000.0001)                 8.612295081967208E+03,      /* I = 40 */
(PID.TID 0000.0001)                 8.830327868852452E+03,      /* I = 41 */
(PID.TID 0000.0001)                 9.048360655737699E+03,      /* I = 42 */
(PID.TID 0000.0001)                 9.266393442622943E+03,      /* I = 43 */
(PID.TID 0000.0001)                 9.484426229508190E+03,      /* I = 44 */
(PID.TID 0000.0001)                 9.702459016393434E+03,      /* I = 45 */
(PID.TID 0000.0001)                 9.920491803278681E+03,      /* I = 46 */
(PID.TID 0000.0001)                 1.013852459016392E+04,      /* I = 47 */
(PID.TID 0000.0001)                 1.035655737704917E+04,      /* I = 48 */
(PID.TID 0000.0001)                 1.057459016393442E+04,      /* I = 49 */
(PID.TID 0000.0001)                 1.079262295081966E+04,      /* I = 50 */
(PID.TID 0000.0001)                 1.101065573770491E+04,      /* I = 51 */
(PID.TID 0000.0001)                 1.122868852459015E+04,      /* I = 52 */
(PID.TID 0000.0001)                 1.144672131147540E+04,      /* I = 53 */
(PID.TID 0000.0001)                 1.166475409836065E+04,      /* I = 54 */
(PID.TID 0000.0001)                 1.188278688524589E+04,      /* I = 55 */
(PID.TID 0000.0001)                 1.210081967213113E+04,      /* I = 56 */
(PID.TID 0000.0001)                 1.231885245901638E+04,      /* I = 57 */
(PID.TID 0000.0001)                 1.253688524590163E+04,      /* I = 58 */
(PID.TID 0000.0001)                 1.275491803278687E+04,      /* I = 59 */
(PID.TID 0000.0001)                 1.297295081967212E+04       /* I = 60 */
(PID.TID 0000.0001)     ;
(PID.TID 0000.0001) yC =  /* yC(1,:,1,:) : P-point Y coord ( deg. or m if cartesian) */
(PID.TID 0000.0001)                 2.500000000000000E+03       /* J =  1 */
(PID.TID 0000.0001)     ;
(PID.TID 0000.0001) rcoord = /* P-point R coordinate (  units of r ) */
(PID.TID 0000.0001)                -5.000000000000000E+00,      /* K =  1 */
(PID.TID 0000.0001)                -1.500000000000000E+01,      /* K =  2 */
(PID.TID 0000.0001)                -2.500000000000000E+01,      /* K =  3 */
(PID.TID 0000.0001)                -3.500000000000000E+01,      /* K =  4 */
(PID.TID 0000.0001)                -4.500000000000000E+01,      /* K =  5 */
(PID.TID 0000.0001)                -5.500000000000000E+01,      /* K =  6 */
(PID.TID 0000.0001)                -6.500000000000000E+01,      /* K =  7 */
(PID.TID 0000.0001)                -7.500000000000000E+01,      /* K =  8 */
(PID.TID 0000.0001)                -8.500000000000000E+01,      /* K =  9 */
(PID.TID 0000.0001)                -9.500000000000000E+01,      /* K = 10 */
(PID.TID 0000.0001)                -1.050000000000000E+02,      /* K = 11 */
(PID.TID 0000.0001)                -1.150000000000000E+02,      /* K = 12 */
(PID.TID 0000.0001)                -1.250000000000000E+02,      /* K = 13 */
(PID.TID 0000.0001)                -1.350000000000000E+02,      /* K = 14 */
(PID.TID 0000.0001)                -1.450000000000000E+02,      /* K = 15 */
(PID.TID 0000.0001)                -1.550000000000000E+02,      /* K = 16 */
(PID.TID 0000.0001)                -1.650000000000000E+02,      /* K = 17 */
(PID.TID 0000.0001)                -1.750000000000000E+02,      /* K = 18 */
(PID.TID 0000.0001)                -1.850000000000000E+02,      /* K = 19 */
(PID.TID 0000.0001)                -1.950000000000000E+02       /* K = 20 */
(PID.TID 0000.0001)     ;
(PID.TID 0000.0001) rF =   /* W-Interf. R coordinate (  units of r ) */
(PID.TID 0000.0001)                 0.000000000000000E+00,      /* K =  1 */
(PID.TID 0000.0001)                -1.000000000000000E+01,      /* K =  2 */
(PID.TID 0000.0001)                -2.000000000000000E+01,      /* K =  3 */
(PID.TID 0000.0001)                -3.000000000000000E+01,      /* K =  4 */
(PID.TID 0000.0001)                -4.000000000000000E+01,      /* K =  5 */
(PID.TID 0000.0001)                -5.000000000000000E+01,      /* K =  6 */
(PID.TID 0000.0001)                -6.000000000000000E+01,      /* K =  7 */
(PID.TID 0000.0001)                -7.000000000000000E+01,      /* K =  8 */
(PID.TID 0000.0001)                -8.000000000000000E+01,      /* K =  9 */
(PID.TID 0000.0001)                -9.000000000000000E+01,      /* K = 10 */
(PID.TID 0000.0001)                -1.000000000000000E+02,      /* K = 11 */
(PID.TID 0000.0001)                -1.100000000000000E+02,      /* K = 12 */
(PID.TID 0000.0001)                -1.200000000000000E+02,      /* K = 13 */
(PID.TID 0000.0001)                -1.300000000000000E+02,      /* K = 14 */
(PID.TID 0000.0001)                -1.400000000000000E+02,      /* K = 15 */
(PID.TID 0000.0001)                -1.500000000000000E+02,      /* K = 16 */
(PID.TID 0000.0001)                -1.600000000000000E+02,      /* K = 17 */
(PID.TID 0000.0001)                -1.700000000000000E+02,      /* K = 18 */
(PID.TID 0000.0001)                -1.800000000000000E+02,      /* K = 19 */
(PID.TID 0000.0001)                -1.900000000000000E+02,      /* K = 20 */
(PID.TID 0000.0001)                -2.000000000000000E+02       /* K = 21 */
(PID.TID 0000.0001)     ;
(PID.TID 0000.0001) deepFacC = /* deep-model grid factor @ cell-Center (-) */
(PID.TID 0000.0001)    20 @  1.000000000000000E+00              /* K =  1: 20 */
(PID.TID 0000.0001)     ;
(PID.TID 0000.0001) deepFacF = /* deep-model grid factor @ W-Interface (-) */
(PID.TID 0000.0001)    21 @  1.000000000000000E+00              /* K =  1: 21 */
(PID.TID 0000.0001)     ;
(PID.TID 0000.0001) rVel2wUnit = /* convert units: rVel -> wSpeed (=1 if z-coord)*/
(PID.TID 0000.0001)    21 @  1.000000000000000E+00              /* K =  1: 21 */
(PID.TID 0000.0001)     ;
(PID.TID 0000.0001) wUnit2rVel = /* convert units: wSpeed -> rVel (=1 if z-coord)*/
(PID.TID 0000.0001)    21 @  1.000000000000000E+00              /* K =  1: 21 */
(PID.TID 0000.0001)     ;
(PID.TID 0000.0001) dBdrRef = /* Vertical grad. of reference buoyancy [(m/s/r)^2] */
(PID.TID 0000.0001)                 0.000000000000000E+00,      /* K =  1 */
(PID.TID 0000.0001)                 1.000011779999999E-06,      /* K =  2 */
(PID.TID 0000.0001)                 9.999921600000012E-07,      /* K =  3 */
(PID.TID 0000.0001)                 9.999921599999997E-07,      /* K =  4 */
(PID.TID 0000.0001)                 1.000011780000000E-06,      /* K =  5 */
(PID.TID 0000.0001)                 9.999921600000005E-07,      /* K =  6 */
(PID.TID 0000.0001)                 1.000011780000000E-06,      /* K =  7 */
(PID.TID 0000.0001)                 9.999921600000005E-07,      /* K =  8 */
(PID.TID 0000.0001)     5 @  1.000000008000000E-06,             /* K =  9: 13 */
(PID.TID 0000.0001)                 9.999921600000005E-07,      /* K = 14 */
(PID.TID 0000.0001)                 1.000011780000000E-06,      /* K = 15 */
(PID.TID 0000.0001)                 9.999921600000005E-07,      /* K = 16 */
(PID.TID 0000.0001)                 1.000011780000000E-06,      /* K = 17 */
(PID.TID 0000.0001)                 9.999921599999997E-07,      /* K = 18 */
(PID.TID 0000.0001)                 9.999921600000012E-07,      /* K = 19 */
(PID.TID 0000.0001)                 1.000011779999999E-06       /* K = 20 */
(PID.TID 0000.0001)     ;
(PID.TID 0000.0001) rotateGrid = /* use rotated grid ( True/False ) */
(PID.TID 0000.0001)                   F
(PID.TID 0000.0001)     ;
(PID.TID 0000.0001) phiEuler = /* Euler angle, rotation about original z-coordinate [rad] */
(PID.TID 0000.0001)                 0.000000000000000E+00
(PID.TID 0000.0001)     ;
(PID.TID 0000.0001) thetaEuler = /* Euler angle, rotation about new x-coordinate [rad] */
(PID.TID 0000.0001)                 0.000000000000000E+00
(PID.TID 0000.0001)     ;
(PID.TID 0000.0001) psiEuler = /* Euler angle, rotation about new z-coordinate [rad] */
(PID.TID 0000.0001)                 0.000000000000000E+00
(PID.TID 0000.0001)     ;
(PID.TID 0000.0001) dxF =  /* dxF(:,1,:,1) ( units: m ) */
(PID.TID 0000.0001)    60 @  2.180327868852459E+02              /* I =  1: 60 */
(PID.TID 0000.0001)     ;
(PID.TID 0000.0001) dxF =  /* dxF(1,:,1,:) ( units: m ) */
(PID.TID 0000.0001)                 2.180327868852459E+02       /* J =  1 */
(PID.TID 0000.0001)     ;
(PID.TID 0000.0001) dyF =  /* dyF(:,1,:,1) ( units: m ) */
(PID.TID 0000.0001)    60 @  5.000000000000000E+03              /* I =  1: 60 */
(PID.TID 0000.0001)     ;
(PID.TID 0000.0001) dyF =  /* dyF(1,:,1,:) ( units: m ) */
(PID.TID 0000.0001)                 5.000000000000000E+03       /* J =  1 */
(PID.TID 0000.0001)     ;
(PID.TID 0000.0001) dxG =  /* dxG(:,1,:,1) ( units: m ) */
(PID.TID 0000.0001)    60 @  2.180327868852459E+02              /* I =  1: 60 */
(PID.TID 0000.0001)     ;
(PID.TID 0000.0001) dxG =  /* dxG(1,:,1,:) ( units: m ) */
(PID.TID 0000.0001)                 2.180327868852459E+02       /* J =  1 */
(PID.TID 0000.0001)     ;
(PID.TID 0000.0001) dyG =  /* dyG(:,1,:,1) ( units: m ) */
(PID.TID 0000.0001)    60 @  5.000000000000000E+03              /* I =  1: 60 */
(PID.TID 0000.0001)     ;
(PID.TID 0000.0001) dyG =  /* dyG(1,:,1,:) ( units: m ) */
(PID.TID 0000.0001)                 5.000000000000000E+03       /* J =  1 */
(PID.TID 0000.0001)     ;
(PID.TID 0000.0001) dxC =  /* dxC(:,1,:,1) ( units: m ) */
(PID.TID 0000.0001)    60 @  2.180327868852459E+02              /* I =  1: 60 */
(PID.TID 0000.0001)     ;
(PID.TID 0000.0001) dxC =  /* dxC(1,:,1,:) ( units: m ) */
(PID.TID 0000.0001)                 2.180327868852459E+02       /* J =  1 */
(PID.TID 0000.0001)     ;
(PID.TID 0000.0001) dyC =  /* dyC(:,1,:,1) ( units: m ) */
(PID.TID 0000.0001)    60 @  5.000000000000000E+03              /* I =  1: 60 */
(PID.TID 0000.0001)     ;
(PID.TID 0000.0001) dyC =  /* dyC(1,:,1,:) ( units: m ) */
(PID.TID 0000.0001)                 5.000000000000000E+03       /* J =  1 */
(PID.TID 0000.0001)     ;
(PID.TID 0000.0001) dxV =  /* dxV(:,1,:,1) ( units: m ) */
(PID.TID 0000.0001)    60 @  2.180327868852459E+02              /* I =  1: 60 */
(PID.TID 0000.0001)     ;
(PID.TID 0000.0001) dxV =  /* dxV(1,:,1,:) ( units: m ) */
(PID.TID 0000.0001)                 2.180327868852459E+02       /* J =  1 */
(PID.TID 0000.0001)     ;
(PID.TID 0000.0001) dyU =  /* dyU(:,1,:,1) ( units: m ) */
(PID.TID 0000.0001)    60 @  5.000000000000000E+03              /* I =  1: 60 */
(PID.TID 0000.0001)     ;
(PID.TID 0000.0001) dyU =  /* dyU(1,:,1,:) ( units: m ) */
(PID.TID 0000.0001)                 5.000000000000000E+03       /* J =  1 */
(PID.TID 0000.0001)     ;
(PID.TID 0000.0001) rA  =  /* rA (:,1,:,1) ( units: m^2 ) */
(PID.TID 0000.0001)    60 @  1.090163934426229E+06              /* I =  1: 60 */
(PID.TID 0000.0001)     ;
(PID.TID 0000.0001) rA  =  /* rA (1,:,1,:) ( units: m^2 ) */
(PID.TID 0000.0001)                 1.090163934426229E+06       /* J =  1 */
(PID.TID 0000.0001)     ;
(PID.TID 0000.0001) rAw =  /* rAw(:,1,:,1) ( units: m^2 ) */
(PID.TID 0000.0001)    60 @  1.090163934426229E+06              /* I =  1: 60 */
(PID.TID 0000.0001)     ;
(PID.TID 0000.0001) rAw =  /* rAw(1,:,1,:) ( units: m^2 ) */
(PID.TID 0000.0001)                 1.090163934426229E+06       /* J =  1 */
(PID.TID 0000.0001)     ;
(PID.TID 0000.0001) rAs =  /* rAs(:,1,:,1) ( units: m^2 ) */
(PID.TID 0000.0001)    60 @  1.090163934426229E+06              /* I =  1: 60 */
(PID.TID 0000.0001)     ;
(PID.TID 0000.0001) rAs =  /* rAs(1,:,1,:) ( units: m^2 ) */
(PID.TID 0000.0001)                 1.090163934426229E+06       /* J =  1 */
(PID.TID 0000.0001)     ;
(PID.TID 0000.0001) globalArea = /* Integrated horizontal Area (m^2) */
(PID.TID 0000.0001)                 6.322950819672131E+07
(PID.TID 0000.0001)     ;
(PID.TID 0000.0001) // =======================================================
(PID.TID 0000.0001) // End of Model config. summary
(PID.TID 0000.0001) // =======================================================
(PID.TID 0000.0001) 
(PID.TID 0000.0001) == Packages configuration : Check & print summary ==
(PID.TID 0000.0001) 
(PID.TID 0000.0001) OBCS_CHECK: #define ALLOW_OBCS
(PID.TID 0000.0001) OBCS_CHECK: start summary:
(PID.TID 0000.0001) useOBCSprescribe = /* prescribe OB values */
(PID.TID 0000.0001)                   F
(PID.TID 0000.0001)     ;
(PID.TID 0000.0001) useOBCSbalance = /* balance the flow through OB */
(PID.TID 0000.0001)                   F
(PID.TID 0000.0001)     ;
(PID.TID 0000.0001) OBCS_uvApplyFac = /* Factor to apply to U,V 2nd column/row */
(PID.TID 0000.0001)                 1.000000000000000E+00
(PID.TID 0000.0001)     ;
(PID.TID 0000.0001) OBCS_u1_adv_T = /* Temp uses upwind adv-scheme @ OB */
(PID.TID 0000.0001)                       0
(PID.TID 0000.0001)     ;
(PID.TID 0000.0001) OBCS_u1_adv_S = /* Salt uses upwind adv-scheme @ OB */
(PID.TID 0000.0001)                       0
(PID.TID 0000.0001)     ;
(PID.TID 0000.0001) OBCS_monitorFreq = /* monitor output frequency [s] */
(PID.TID 0000.0001)                 7.200000000000000E+03
(PID.TID 0000.0001)     ;
(PID.TID 0000.0001) OBCS_monSelect = /* select group of variables to monitor */
(PID.TID 0000.0001)                       0
(PID.TID 0000.0001)     ;
(PID.TID 0000.0001) useOBCStides = /* apply tidal forcing through OB */
(PID.TID 0000.0001)                   F
(PID.TID 0000.0001)     ;
(PID.TID 0000.0001) tidalPeriod = /* (s) */
(PID.TID 0000.0001)    10 @  0.000000000000000E+00              /* I =  1: 10 */
(PID.TID 0000.0001)     ;
(PID.TID 0000.0001) OB_indexNone = /* null value for OB index (i.e. no OB) */
(PID.TID 0000.0001)                     -99
(PID.TID 0000.0001)     ;
(PID.TID 0000.0001) ======== Tile bi=   1 , bj=   1 ========
(PID.TID 0000.0001)  OB_Jn = /* Northern OB local indices */
(PID.TID 0000.0001)    34 @      -99                            /* I = -1: 32 */
(PID.TID 0000.0001)  OB_Js = /* Southern OB local indices */
(PID.TID 0000.0001)    34 @      -99                            /* I = -1: 32 */
(PID.TID 0000.0001)  OB_Ie = /* Eastern OB local indices */
(PID.TID 0000.0001)     5 @      -99                            /* J = -1:  3 */
(PID.TID 0000.0001)  OB_Iw = /* Western OB local indices */
(PID.TID 0000.0001)     5 @        1                            /* J = -1:  3 */
(PID.TID 0000.0001) ======== Tile bi=   2 , bj=   1 ========
(PID.TID 0000.0001)  OB_Jn = /* Northern OB local indices */
(PID.TID 0000.0001)    34 @      -99                            /* I = -1: 32 */
(PID.TID 0000.0001)  OB_Js = /* Southern OB local indices */
(PID.TID 0000.0001)    34 @      -99                            /* I = -1: 32 */
(PID.TID 0000.0001)  OB_Ie = /* Eastern OB local indices */
(PID.TID 0000.0001)     5 @       30                            /* J = -1:  3 */
(PID.TID 0000.0001)  OB_Iw = /* Western OB local indices */
(PID.TID 0000.0001)     5 @      -99                            /* J = -1:  3 */
(PID.TID 0000.0001) OBCS_CHECK: end summary.
(PID.TID 0000.0001) OBCS_CHECK: #define ALLOW_ORLANSKI
(PID.TID 0000.0001) OBCS_CHECK: set-up OK
(PID.TID 0000.0001) OBCS_CHECK: check Inside Mask and OB locations: OK
(PID.TID 0000.0001) KL10_CHECK: #define ALLOW_KL10
(PID.TID 0000.0001) GAD_CHECK: #define ALLOW_GENERIC_ADVDIFF
(PID.TID 0000.0001) // =======================================================
(PID.TID 0000.0001) // Check Model config. (CONFIG_CHECK):
(PID.TID 0000.0001) // CONFIG_CHECK : Normal End
(PID.TID 0000.0001) // =======================================================
(PID.TID 0000.0001) 
(PID.TID 0000.0001)  MDS_READ_FIELD: opening global file: T.init
(PID.TID 0000.0001) Start initial hydrostatic pressure computation
(PID.TID 0000.0001) Pressure is predetermined for buoyancyRelation OCEANIC
(PID.TID 0000.0001) 
(PID.TID 0000.0001) // =======================================================
(PID.TID 0000.0001) // Model current state
(PID.TID 0000.0001) // =======================================================
(PID.TID 0000.0001) 
(PID.TID 0000.0001) // =======================================================
(PID.TID 0000.0001) // Begin MONITOR dynamic field statistics
(PID.TID 0000.0001) // =======================================================
(PID.TID 0000.0001) %MON time_tsnumber                =                     0
(PID.TID 0000.0001) %MON time_secondsf                =   0.0000000000000E+00
(PID.TID 0000.0001) %MON dynstat_eta_max              =   0.0000000000000E+00
(PID.TID 0000.0001) %MON dynstat_eta_min              =   0.0000000000000E+00
(PID.TID 0000.0001) %MON dynstat_eta_mean             =   0.0000000000000E+00
(PID.TID 0000.0001) %MON dynstat_eta_sd               =   0.0000000000000E+00
(PID.TID 0000.0001) %MON dynstat_eta_del2             =   0.0000000000000E+00
(PID.TID 0000.0001) %MON dynstat_uvel_max             =   0.0000000000000E+00
(PID.TID 0000.0001) %MON dynstat_uvel_min             =   0.0000000000000E+00
(PID.TID 0000.0001) %MON dynstat_uvel_mean            =   0.0000000000000E+00
(PID.TID 0000.0001) %MON dynstat_uvel_sd              =   0.0000000000000E+00
(PID.TID 0000.0001) %MON dynstat_uvel_del2            =   0.0000000000000E+00
(PID.TID 0000.0001) %MON dynstat_vvel_max             =   0.0000000000000E+00
(PID.TID 0000.0001) %MON dynstat_vvel_min             =   0.0000000000000E+00
(PID.TID 0000.0001) %MON dynstat_vvel_mean            =   0.0000000000000E+00
(PID.TID 0000.0001) %MON dynstat_vvel_sd              =   0.0000000000000E+00
(PID.TID 0000.0001) %MON dynstat_vvel_del2            =   0.0000000000000E+00
(PID.TID 0000.0001) %MON dynstat_wvel_max             =  -0.0000000000000E+00
(PID.TID 0000.0001) %MON dynstat_wvel_min             =  -0.0000000000000E+00
(PID.TID 0000.0001) %MON dynstat_wvel_mean            =   0.0000000000000E+00
(PID.TID 0000.0001) %MON dynstat_wvel_sd              =   0.0000000000000E+00
(PID.TID 0000.0001) %MON dynstat_wvel_del2            =   0.0000000000000E+00
(PID.TID 0000.0001) %MON dynstat_theta_max            =   4.8419979612640E-02
(PID.TID 0000.0001) %MON dynstat_theta_min            =  -4.8419979612640E-02
(PID.TID 0000.0001) %MON dynstat_theta_mean           =   1.4460841624175E-02
(PID.TID 0000.0001) %MON dynstat_theta_sd             =   2.7660544389986E-02
(PID.TID 0000.0001) %MON dynstat_theta_del2           =   1.8343774058368E-10
(PID.TID 0000.0001) %MON dynstat_salt_max             =   3.5000000000000E+01
(PID.TID 0000.0001) %MON dynstat_salt_min             =   3.5000000000000E+01
(PID.TID 0000.0001) %MON dynstat_salt_mean            =   3.5000000000000E+01
(PID.TID 0000.0001) %MON dynstat_salt_sd              =   3.5527136788005E-13
(PID.TID 0000.0001) %MON dynstat_salt_del2            =   2.6218552499998E-01
(PID.TID 0000.0001) %MON advcfl_uvel_max              =   0.0000000000000E+00
(PID.TID 0000.0001) %MON advcfl_vvel_max              =   0.0000000000000E+00
(PID.TID 0000.0001) %MON advcfl_wvel_max              =   0.0000000000000E+00
(PID.TID 0000.0001) %MON advcfl_W_hf_max              =   0.0000000000000E+00
(PID.TID 0000.0001) %MON pe_b_mean                    =   0.0000000000000E+00
(PID.TID 0000.0001) %MON ke_max                       =   0.0000000000000E+00
(PID.TID 0000.0001) %MON ke_mean                      =   0.0000000000000E+00
(PID.TID 0000.0001) %MON ke_vol                       =   6.4007813759742E+09
(PID.TID 0000.0001) %MON vort_r_min                   =   0.0000000000000E+00
(PID.TID 0000.0001) %MON vort_r_max                   =   0.0000000000000E+00
(PID.TID 0000.0001) %MON vort_a_mean                  =   0.0000000000000E+00
(PID.TID 0000.0001) %MON vort_a_sd                    =   0.0000000000000E+00
(PID.TID 0000.0001) %MON vort_p_mean                  =   0.0000000000000E+00
(PID.TID 0000.0001) %MON vort_p_sd                    =   0.0000000000000E+00
(PID.TID 0000.0001) %MON surfExpan_theta_mean         =   0.0000000000000E+00
(PID.TID 0000.0001) %MON surfExpan_salt_mean          =   0.0000000000000E+00
(PID.TID 0000.0001) // =======================================================
(PID.TID 0000.0001) // End MONITOR dynamic field statistics
(PID.TID 0000.0001) // =======================================================
(PID.TID 0000.0001) // =======================================================
(PID.TID 0000.0001) // Begin OBCS MONITOR field statistics
(PID.TID 0000.0001) // =======================================================
(PID.TID 0000.0001) %MON obc_W_uVel_max               =   0.0000000000000E+00
(PID.TID 0000.0001) %MON obc_W_uVel_min               =   0.0000000000000E+00
(PID.TID 0000.0001) %MON obc_W_uVel_mean              =   0.0000000000000E+00
(PID.TID 0000.0001) %MON obc_W_uVel_sd                =   0.0000000000000E+00
(PID.TID 0000.0001) %MON obc_W_uVel_Int               =   0.0000000000000E+00
(PID.TID 0000.0001) // =======================================================
(PID.TID 0000.0001) // End OBCS MONITOR field statistics
(PID.TID 0000.0001) // =======================================================
(PID.TID 0000.0001) SOLVE_FOR_PRESSURE: putPmEinXvector =    F
(PID.TID 0000.0001) SOLVE_FOR_PRESSURE: zeroPsNH=    F , zeroMeanPnh=    F
(PID.TID 0000.0001) SOLVE_FOR_PRESSURE: oldFreeSurfTerm =    F
 cg2d: Sum(rhs),rhsMax =  -1.00000000000000E+00  9.68260080492760E-20
 cg2d: Sum(rhs),rhsMax =  -1.41763608230844E-13  8.72110349225715E-07
 cg2d: Sum(rhs),rhsMax =  -1.07979760115978E-16  6.10870494937683E-05
 cg2d: Sum(rhs),rhsMax =  -2.02491018744255E-14  7.47785965633137E-05
 cg2d: Sum(rhs),rhsMax =  -1.15039271511574E-14  1.53635762405546E-04
 cg2d: Sum(rhs),rhsMax =  -4.12316665185375E-15  1.81194468141316E-04
 cg2d: Sum(rhs),rhsMax =  -4.04570040662966E-15  2.68197809127418E-04
 cg2d: Sum(rhs),rhsMax =  -1.18727185201284E-14  2.99601215406284E-04
 cg2d: Sum(rhs),rhsMax =  -7.78207793344921E-15  3.84027792293998E-04
 cg2d: Sum(rhs),rhsMax =  -1.20388725030618E-14  4.09148871704274E-04
 cg2d: Sum(rhs),rhsMax =  -1.24665360499987E-14  4.81249191654350E-04
 cg2d: Sum(rhs),rhsMax =  -1.63122011558048E-14  4.91867656066536E-04
 cg2d: Sum(rhs),rhsMax =  -1.67165543560333E-14  5.44678243570951E-04
 cg2d: Sum(rhs),rhsMax =  -2.23470330781850E-14  5.35996149587999E-04
 cg2d: Sum(rhs),rhsMax =  -2.20592316114987E-14  5.66435023033532E-04
 cg2d: Sum(rhs),rhsMax =  -2.75147743131199E-14  5.37680792528435E-04
(PID.TID 0000.0001)      cg2d_init_res =   1.67939113275216E-01
(PID.TID 0000.0001)      cg2d_iters(min,last) =      -1      58
(PID.TID 0000.0001)      cg2d_last_res =   3.46232142181584E-19
(PID.TID 0000.0001) // =======================================================
(PID.TID 0000.0001) // Begin MONITOR dynamic field statistics
(PID.TID 0000.0001) // =======================================================
(PID.TID 0000.0001) %MON time_tsnumber                =                    16
(PID.TID 0000.0001) %MON time_secondsf                =   7.2000000000000E+03
(PID.TID 0000.0001) %MON dynstat_eta_max              =   8.9493616180735E-05
(PID.TID 0000.0001) %MON dynstat_eta_min              =  -2.4788295522049E-06
(PID.TID 0000.0001) %MON dynstat_eta_mean             =   5.0285106093753E-17
(PID.TID 0000.0001) %MON dynstat_eta_sd               =   1.2815848070806E-05
(PID.TID 0000.0001) %MON dynstat_eta_del2             =   6.0831899217025E-07
(PID.TID 0000.0001) %MON dynstat_uvel_max             =   1.9724293559825E-02
(PID.TID 0000.0001) %MON dynstat_uvel_min             =  -1.9724293559825E-02
(PID.TID 0000.0001) %MON dynstat_uvel_mean            =  -2.7347429097332E-08
(PID.TID 0000.0001) %MON dynstat_uvel_sd              =   2.9654379588911E-03
(PID.TID 0000.0001) %MON dynstat_uvel_del2            =   3.4230352198524E-05
(PID.TID 0000.0001) %MON dynstat_vvel_max             =   0.0000000000000E+00
(PID.TID 0000.0001) %MON dynstat_vvel_min             =   0.0000000000000E+00
(PID.TID 0000.0001) %MON dynstat_vvel_mean            =   0.0000000000000E+00
(PID.TID 0000.0001) %MON dynstat_vvel_sd              =   0.0000000000000E+00
(PID.TID 0000.0001) %MON dynstat_vvel_del2            =   0.0000000000000E+00
(PID.TID 0000.0001) %MON dynstat_wvel_max             =   5.5454927669210E-08
(PID.TID 0000.0001) %MON dynstat_wvel_min             =  -2.6007191107466E-03
(PID.TID 0000.0001) %MON dynstat_wvel_mean            =  -1.2936438357804E-04
(PID.TID 0000.0001) %MON dynstat_wvel_sd              =   4.6433991088466E-04
(PID.TID 0000.0001) %MON dynstat_wvel_del2            =   1.8321840430909E-05
(PID.TID 0000.0001) %MON dynstat_theta_max            =   4.9035518264378E-02
(PID.TID 0000.0001) %MON dynstat_theta_min            =  -4.8416311201084E-02
(PID.TID 0000.0001) %MON dynstat_theta_mean           =   1.4714347385816E-02
(PID.TID 0000.0001) %MON dynstat_theta_sd             =   2.7547690087229E-02
(PID.TID 0000.0001) %MON dynstat_theta_del2           =   2.4735853822282E-05
(PID.TID 0000.0001) %MON dynstat_salt_max             =   3.5000000000000E+01
(PID.TID 0000.0001) %MON dynstat_salt_min             =   3.5000000000000E+01
(PID.TID 0000.0001) %MON dynstat_salt_mean            =   3.5000000000000E+01
(PID.TID 0000.0001) %MON dynstat_salt_sd              =   3.4816594052245E-13
(PID.TID 0000.0001) %MON dynstat_salt_del2            =   2.6218552499998E-01
(PID.TID 0000.0001) %MON advcfl_uvel_max              =   4.0709162271970E-02
(PID.TID 0000.0001) %MON advcfl_vvel_max              =   0.0000000000000E+00
(PID.TID 0000.0001) %MON advcfl_wvel_max              =   1.1703235998360E-01
(PID.TID 0000.0001) %MON advcfl_W_hf_max              =   1.1703235998360E-01
(PID.TID 0000.0001) %MON pe_b_mean                    =   7.9583039565829E-12
(PID.TID 0000.0001) %MON ke_max                       =   1.2713285639223E-04
(PID.TID 0000.0001) %MON ke_mean                      =   2.7301112276481E-06
(PID.TID 0000.0001) %MON ke_vol                       =   6.4007813759742E+09
(PID.TID 0000.0001) %MON vort_r_min                   =   0.0000000000000E+00
(PID.TID 0000.0001) %MON vort_r_max                   =   0.0000000000000E+00
(PID.TID 0000.0001) %MON vort_a_mean                  =   0.0000000000000E+00
(PID.TID 0000.0001) %MON vort_a_sd                    =   0.0000000000000E+00
(PID.TID 0000.0001) %MON vort_p_mean                  =   0.0000000000000E+00
(PID.TID 0000.0001) %MON vort_p_sd                    =   0.0000000000000E+00
(PID.TID 0000.0001) %MON surfExpan_theta_mean         =  -1.0690753399921E-12
(PID.TID 0000.0001) %MON surfExpan_salt_mean          =   1.9299120248486E-19
(PID.TID 0000.0001) // =======================================================
(PID.TID 0000.0001) // End MONITOR dynamic field statistics
(PID.TID 0000.0001) // =======================================================
(PID.TID 0000.0001) // =======================================================
(PID.TID 0000.0001) // Begin OBCS MONITOR field statistics
(PID.TID 0000.0001) // =======================================================
(PID.TID 0000.0001) %MON obc_W_uVel_max               =   1.9724293559825E-02
(PID.TID 0000.0001) %MON obc_W_uVel_min               =  -1.9724293559825E-02
(PID.TID 0000.0001) %MON obc_W_uVel_mean              =   1.7053025658242E-18
(PID.TID 0000.0001) %MON obc_W_uVel_sd                =   1.3990309184453E-02
(PID.TID 0000.0001) %MON obc_W_uVel_Int               =   1.7053025658242E-12
(PID.TID 0000.0001) // =======================================================
(PID.TID 0000.0001) // End OBCS MONITOR field statistics
(PID.TID 0000.0001) // =======================================================
 cg2d: Sum(rhs),rhsMax =  -2.75869821778074E-14  5.46666639861012E-04
 cg2d: Sum(rhs),rhsMax =  -3.29185463610049E-14  5.00736715376103E-04
 cg2d: Sum(rhs),rhsMax =  -3.54141629216320E-14  4.92383555638147E-04
 cg2d: Sum(rhs),rhsMax =  -4.22717416626028E-14  4.34689789941303E-04
 cg2d: Sum(rhs),rhsMax =  -5.65409264546846E-14  4.14909359397306E-04
 cg2d: Sum(rhs),rhsMax =  -6.66916608743628E-14  3.51837384078288E-04
 cg2d: Sum(rhs),rhsMax =  -8.11141518536340E-14  3.26767079256948E-04
 cg2d: Sum(rhs),rhsMax =  -1.15467097688837E-13  2.69292897324890E-04
 cg2d: Sum(rhs),rhsMax =  -1.11115543849349E-13  2.81493144844124E-04
 cg2d: Sum(rhs),rhsMax =  -1.01319994061377E-13  3.31238542363564E-04
 cg2d: Sum(rhs),rhsMax =  -9.55368596733397E-14  3.23393112657140E-04
 cg2d: Sum(rhs),rhsMax =  -9.78796037276464E-14  3.52037488998770E-04
 cg2d: Sum(rhs),rhsMax =  -1.11627720955632E-13  3.26813294706971E-04
 cg2d: Sum(rhs),rhsMax =  -1.04460277233764E-13  3.38517955776686E-04
 cg2d: Sum(rhs),rhsMax =  -1.21824425547423E-13  3.01539347866659E-04
 cg2d: Sum(rhs),rhsMax =  -1.29126310338679E-13  3.02580661879812E-04
(PID.TID 0000.0001)      cg2d_init_res =   2.31124676713875E-01
(PID.TID 0000.0001)      cg2d_iters(min,last) =      -1      58
(PID.TID 0000.0001)      cg2d_last_res =   2.02502228567721E-18
(PID.TID 0000.0001) // =======================================================
(PID.TID 0000.0001) // Begin MONITOR dynamic field statistics
(PID.TID 0000.0001) // =======================================================
(PID.TID 0000.0001) %MON time_tsnumber                =                    32
(PID.TID 0000.0001) %MON time_secondsf                =   1.4400000000000E+04
(PID.TID 0000.0001) %MON dynstat_eta_max              =   1.1607504237234E-04
(PID.TID 0000.0001) %MON dynstat_eta_min              =  -6.8755556092297E-06
(PID.TID 0000.0001) %MON dynstat_eta_mean             =   1.4424585970119E-16
(PID.TID 0000.0001) %MON dynstat_eta_sd               =   2.5503041454966E-05
(PID.TID 0000.0001) %MON dynstat_eta_del2             =   8.4641621222691E-07
(PID.TID 0000.0001) %MON dynstat_uvel_max             =   2.2888560832021E-02
(PID.TID 0000.0001) %MON dynstat_uvel_min             =  -2.3553779484204E-02
(PID.TID 0000.0001) %MON dynstat_uvel_mean            =  -1.6800624843216E-08
(PID.TID 0000.0001) %MON dynstat_uvel_sd              =   5.0883922938265E-03
(PID.TID 0000.0001) %MON dynstat_uvel_del2            =   5.2956091602454E-05
(PID.TID 0000.0001) %MON dynstat_vvel_max             =   0.0000000000000E+00
(PID.TID 0000.0001) %MON dynstat_vvel_min             =   0.0000000000000E+00
(PID.TID 0000.0001) %MON dynstat_vvel_mean            =   0.0000000000000E+00
(PID.TID 0000.0001) %MON dynstat_vvel_sd              =   0.0000000000000E+00
(PID.TID 0000.0001) %MON dynstat_vvel_del2            =   0.0000000000000E+00
(PID.TID 0000.0001) %MON dynstat_wvel_max             =   6.8287616297473E-04
(PID.TID 0000.0001) %MON dynstat_wvel_min             =  -2.7095712923072E-03
(PID.TID 0000.0001) %MON dynstat_wvel_mean            =  -1.3649354263216E-04
(PID.TID 0000.0001) %MON dynstat_wvel_sd              =   4.8074363660872E-04
(PID.TID 0000.0001) %MON dynstat_wvel_del2            =   1.8537548037341E-05
(PID.TID 0000.0001) %MON dynstat_theta_max            =   4.9326169855008E-02
(PID.TID 0000.0001) %MON dynstat_theta_min            =  -4.8412639931846E-02
(PID.TID 0000.0001) %MON dynstat_theta_mean           =   1.5231701184073E-02
(PID.TID 0000.0001) %MON dynstat_theta_sd             =   2.7348734514624E-02
(PID.TID 0000.0001) %MON dynstat_theta_del2           =   2.5773493515380E-05
(PID.TID 0000.0001) %MON dynstat_salt_max             =   3.5000000000000E+01
(PID.TID 0000.0001) %MON dynstat_salt_min             =   3.5000000000000E+01
(PID.TID 0000.0001) %MON dynstat_salt_mean            =   3.5000000000000E+01
(PID.TID 0000.0001) %MON dynstat_salt_sd              =   3.4816594052245E-13
(PID.TID 0000.0001) %MON dynstat_salt_del2            =   2.6218552499998E-01
(PID.TID 0000.0001) %MON advcfl_uvel_max              =   4.8612875702361E-02
(PID.TID 0000.0001) %MON advcfl_vvel_max              =   0.0000000000000E+00
(PID.TID 0000.0001) %MON advcfl_wvel_max              =   1.2193070815382E-01
(PID.TID 0000.0001) %MON advcfl_W_hf_max              =   1.2193070815382E-01
(PID.TID 0000.0001) %MON pe_b_mean                    =   3.1514453149760E-11
(PID.TID 0000.0001) %MON ke_max                       =   2.4697249955432E-04
(PID.TID 0000.0001) %MON ke_mean                      =   1.1090294002114E-05
(PID.TID 0000.0001) %MON ke_vol                       =   6.4007813759742E+09
(PID.TID 0000.0001) %MON vort_r_min                   =   0.0000000000000E+00
(PID.TID 0000.0001) %MON vort_r_max                   =   0.0000000000000E+00
(PID.TID 0000.0001) %MON vort_a_mean                  =   0.0000000000000E+00
(PID.TID 0000.0001) %MON vort_a_sd                    =   0.0000000000000E+00
(PID.TID 0000.0001) %MON vort_p_mean                  =   0.0000000000000E+00
(PID.TID 0000.0001) %MON vort_p_sd                    =   0.0000000000000E+00
(PID.TID 0000.0001) %MON surfExpan_theta_mean         =   8.7820043870024E-14
(PID.TID 0000.0001) %MON surfExpan_salt_mean          =  -3.1206763040083E-19
(PID.TID 0000.0001) // =======================================================
(PID.TID 0000.0001) // End MONITOR dynamic field statistics
(PID.TID 0000.0001) // =======================================================
(PID.TID 0000.0001) // =======================================================
(PID.TID 0000.0001) // Begin OBCS MONITOR field statistics
(PID.TID 0000.0001) // =======================================================
(PID.TID 0000.0001) %MON obc_W_uVel_max               =   2.0811282282136E-02
(PID.TID 0000.0001) %MON obc_W_uVel_min               =  -2.0811282282136E-02
(PID.TID 0000.0001) %MON obc_W_uVel_mean              =   1.3642420526594E-18
(PID.TID 0000.0001) %MON obc_W_uVel_sd                =   1.4761302997692E-02
(PID.TID 0000.0001) %MON obc_W_uVel_Int               =   1.3642420526594E-12
(PID.TID 0000.0001) // =======================================================
(PID.TID 0000.0001) // End OBCS MONITOR field statistics
(PID.TID 0000.0001) // =======================================================
 cg2d: Sum(rhs),rhsMax =  -1.57275234502485E-13  2.60697812549014E-04
 cg2d: Sum(rhs),rhsMax =  -1.47835303027088E-13  2.88683598882754E-04
 cg2d: Sum(rhs),rhsMax =  -1.37345863848726E-13  3.19234947489379E-04
 cg2d: Sum(rhs),rhsMax =  -1.31075272163939E-13  3.31230942261417E-04
 cg2d: Sum(rhs),rhsMax =  -1.27511282782544E-13  3.45666432232711E-04
 cg2d: Sum(rhs),rhsMax =  -1.38134295668557E-13  3.41343126887535E-04
 cg2d: Sum(rhs),rhsMax =  -1.48491895862746E-13  3.42246240919701E-04
 cg2d: Sum(rhs),rhsMax =  -1.60548224020785E-13  3.25254010825696E-04
 cg2d: Sum(rhs),rhsMax =  -1.67025681480082E-13  3.17047578317999E-04
 cg2d: Sum(rhs),rhsMax =  -1.77727624284252E-13  2.92331897473547E-04
 cg2d: Sum(rhs),rhsMax =  -1.80983700248660E-13  2.93681698737844E-04
 cg2d: Sum(rhs),rhsMax =  -1.82580513208297E-13  3.22201479803563E-04
 cg2d: Sum(rhs),rhsMax =  -1.67515307181176E-13  3.56598287112689E-04
 cg2d: Sum(rhs),rhsMax =  -1.60448911101785E-13  3.93215701467609E-04
 cg2d: Sum(rhs),rhsMax =  -1.43323720946942E-13  4.30456843478566E-04
 cg2d: Sum(rhs),rhsMax =  -1.29179219404696E-13  4.65963774548781E-04
(PID.TID 0000.0001)      cg2d_init_res =   1.50421068243864E-01
(PID.TID 0000.0001)      cg2d_iters(min,last) =      -1      58
(PID.TID 0000.0001)      cg2d_last_res =   1.28307997219565E-19
(PID.TID 0000.0001) // =======================================================
(PID.TID 0000.0001) // Begin MONITOR dynamic field statistics
(PID.TID 0000.0001) // =======================================================
(PID.TID 0000.0001) %MON time_tsnumber                =                    48
(PID.TID 0000.0001) %MON time_secondsf                =   2.1600000000000E+04
(PID.TID 0000.0001) %MON dynstat_eta_max              =   1.1384597177905E-04
(PID.TID 0000.0001) %MON dynstat_eta_min              =  -9.5185484102636E-06
(PID.TID 0000.0001) %MON dynstat_eta_mean             =   2.2126511098955E-16
(PID.TID 0000.0001) %MON dynstat_eta_sd               =   2.8523345541583E-05
(PID.TID 0000.0001) %MON dynstat_eta_del2             =   9.7288915375645E-07
(PID.TID 0000.0001) %MON dynstat_uvel_max             =   2.3114389422461E-02
(PID.TID 0000.0001) %MON dynstat_uvel_min             =  -2.3499520848091E-02
(PID.TID 0000.0001) %MON dynstat_uvel_mean            =   9.0676556571106E-09
(PID.TID 0000.0001) %MON dynstat_uvel_sd              =   5.3628863948999E-03
(PID.TID 0000.0001) %MON dynstat_uvel_del2            =   5.9920555202171E-05
(PID.TID 0000.0001) %MON dynstat_vvel_max             =   0.0000000000000E+00
(PID.TID 0000.0001) %MON dynstat_vvel_min             =   0.0000000000000E+00
(PID.TID 0000.0001) %MON dynstat_vvel_mean            =   0.0000000000000E+00
(PID.TID 0000.0001) %MON dynstat_vvel_sd              =   0.0000000000000E+00
(PID.TID 0000.0001) %MON dynstat_vvel_del2            =   0.0000000000000E+00
(PID.TID 0000.0001) %MON dynstat_wvel_max             =   3.0939981647406E-03
(PID.TID 0000.0001) %MON dynstat_wvel_min             =  -2.5721707241717E-03
(PID.TID 0000.0001) %MON dynstat_wvel_mean            =  -1.4651199884595E-05
(PID.TID 0000.0001) %MON dynstat_wvel_sd              =   7.0297933934593E-04
(PID.TID 0000.0001) %MON dynstat_wvel_del2            =   2.5324825783643E-05
(PID.TID 0000.0001) %MON dynstat_theta_max            =   4.9296633814206E-02
(PID.TID 0000.0001) %MON dynstat_theta_min            =  -4.8408584485000E-02
(PID.TID 0000.0001) %MON dynstat_theta_mean           =   1.5524138396275E-02
(PID.TID 0000.0001) %MON dynstat_theta_sd             =   2.7219254104734E-02
(PID.TID 0000.0001) %MON dynstat_theta_del2           =   3.1741482577205E-05
(PID.TID 0000.0001) %MON dynstat_salt_max             =   3.5000000000000E+01
(PID.TID 0000.0001) %MON dynstat_salt_min             =   3.5000000000000E+01
(PID.TID 0000.0001) %MON dynstat_salt_mean            =   3.5000000000000E+01
(PID.TID 0000.0001) %MON dynstat_salt_sd              =   3.4816594052245E-13
(PID.TID 0000.0001) %MON dynstat_salt_del2            =   2.6218552499998E-01
(PID.TID 0000.0001) %MON advcfl_uvel_max              =   4.8500890772940E-02
(PID.TID 0000.0001) %MON advcfl_vvel_max              =   0.0000000000000E+00
(PID.TID 0000.0001) %MON advcfl_wvel_max              =   1.3922991741333E-01
(PID.TID 0000.0001) %MON advcfl_W_hf_max              =   1.3922991741333E-01
(PID.TID 0000.0001) %MON pe_b_mean                    =   3.9420919323683E-11
(PID.TID 0000.0001) %MON ke_max                       =   2.4082270942759E-04
(PID.TID 0000.0001) %MON ke_mean                      =   1.4358895226987E-05
(PID.TID 0000.0001) %MON ke_vol                       =   6.4007813759742E+09
(PID.TID 0000.0001) %MON vort_r_min                   =   0.0000000000000E+00
(PID.TID 0000.0001) %MON vort_r_max                   =   0.0000000000000E+00
(PID.TID 0000.0001) %MON vort_a_mean                  =   0.0000000000000E+00
(PID.TID 0000.0001) %MON vort_a_sd                    =   0.0000000000000E+00
(PID.TID 0000.0001) %MON vort_p_mean                  =   0.0000000000000E+00
(PID.TID 0000.0001) %MON vort_p_sd                    =   0.0000000000000E+00
(PID.TID 0000.0001) %MON surfExpan_theta_mean         =   1.1626243085321E-12
(PID.TID 0000.0001) %MON surfExpan_salt_mean          =  -8.1117540737365E-19
(PID.TID 0000.0001) // =======================================================
(PID.TID 0000.0001) // End MONITOR dynamic field statistics
(PID.TID 0000.0001) // =======================================================
(PID.TID 0000.0001) // =======================================================
(PID.TID 0000.0001) // Begin OBCS MONITOR field statistics
(PID.TID 0000.0001) // =======================================================
(PID.TID 0000.0001) %MON obc_W_uVel_max               =   2.2338804509751E-03
(PID.TID 0000.0001) %MON obc_W_uVel_min               =  -2.2338804509751E-03
(PID.TID 0000.0001) %MON obc_W_uVel_mean              =  -8.5265128291212E-20
(PID.TID 0000.0001) %MON obc_W_uVel_sd                =   1.5844764272776E-03
(PID.TID 0000.0001) %MON obc_W_uVel_Int               =  -8.5265128291212E-14
(PID.TID 0000.0001) // =======================================================
(PID.TID 0000.0001) // End OBCS MONITOR field statistics
(PID.TID 0000.0001) // =======================================================
 cg2d: Sum(rhs),rhsMax =  -1.20482183257886E-13  5.04309460505950E-04
 cg2d: Sum(rhs),rhsMax =  -1.09550823274018E-13  5.36977364693779E-04
 cg2d: Sum(rhs),rhsMax =  -1.02495269216352E-13  5.74585900673959E-04
 cg2d: Sum(rhs),rhsMax =  -9.69311436671561E-14  6.02711859386986E-04
 cg2d: Sum(rhs),rhsMax =  -1.02754393535576E-13  6.37872822636051E-04
 cg2d: Sum(rhs),rhsMax =  -9.44791120338628E-14  6.59975198454320E-04
 cg2d: Sum(rhs),rhsMax =  -8.70692407062279E-14  6.91266798446367E-04
 cg2d: Sum(rhs),rhsMax =  -9.41243610830256E-14  7.06219384393523E-04
 cg2d: Sum(rhs),rhsMax =  -9.57049110100749E-14  7.32600202541461E-04
 cg2d: Sum(rhs),rhsMax =  -8.83904494736187E-14  7.39663487112095E-04
 cg2d: Sum(rhs),rhsMax =  -8.00279981172380E-14  7.60472538748155E-04
 cg2d: Sum(rhs),rhsMax =  -8.50775613153720E-14  7.59252255603430E-04
 cg2d: Sum(rhs),rhsMax =  -8.40863836892858E-14  7.74117636626811E-04
 cg2d: Sum(rhs),rhsMax =  -8.70742280362213E-14  7.64444992143696E-04
 cg2d: Sum(rhs),rhsMax =  -8.39577973116290E-14  7.73147017472164E-04
 cg2d: Sum(rhs),rhsMax =  -7.70906775915403E-14  7.54938053554265E-04
(PID.TID 0000.0001)      cg2d_init_res =   8.79522962318757E-02
(PID.TID 0000.0001)      cg2d_iters(min,last) =      -1      58
(PID.TID 0000.0001)      cg2d_last_res =   6.54241013735087E-19
(PID.TID 0000.0001) // =======================================================
(PID.TID 0000.0001) // Begin MONITOR dynamic field statistics
(PID.TID 0000.0001) // =======================================================
(PID.TID 0000.0001) %MON time_tsnumber                =                    64
(PID.TID 0000.0001) %MON time_secondsf                =   2.8800000000000E+04
(PID.TID 0000.0001) %MON dynstat_eta_max              =   1.1658063093777E-04
(PID.TID 0000.0001) %MON dynstat_eta_min              =  -1.1264686950178E-04
(PID.TID 0000.0001) %MON dynstat_eta_mean             =   2.1827754940722E-16
(PID.TID 0000.0001) %MON dynstat_eta_sd               =   3.2313565841154E-05
(PID.TID 0000.0001) %MON dynstat_eta_del2             =   1.0201489611775E-06
(PID.TID 0000.0001) %MON dynstat_uvel_max             =   2.3212672979859E-02
(PID.TID 0000.0001) %MON dynstat_uvel_min             =  -2.3420577935438E-02
(PID.TID 0000.0001) %MON dynstat_uvel_mean            =   4.6915654091368E-08
(PID.TID 0000.0001) %MON dynstat_uvel_sd              =   5.9786543495786E-03
(PID.TID 0000.0001) %MON dynstat_uvel_del2            =   5.9359991894239E-05
(PID.TID 0000.0001) %MON dynstat_vvel_max             =   0.0000000000000E+00
(PID.TID 0000.0001) %MON dynstat_vvel_min             =   0.0000000000000E+00
(PID.TID 0000.0001) %MON dynstat_vvel_mean            =   0.0000000000000E+00
(PID.TID 0000.0001) %MON dynstat_vvel_sd              =   0.0000000000000E+00
(PID.TID 0000.0001) %MON dynstat_vvel_del2            =   0.0000000000000E+00
(PID.TID 0000.0001) %MON dynstat_wvel_max             =   3.1937989682377E-03
(PID.TID 0000.0001) %MON dynstat_wvel_min             =  -2.4186512196807E-03
(PID.TID 0000.0001) %MON dynstat_wvel_mean            =   1.2103492782065E-04
(PID.TID 0000.0001) %MON dynstat_wvel_sd              =   8.8344834899250E-04
(PID.TID 0000.0001) %MON dynstat_wvel_del2            =   1.7084741824948E-05
(PID.TID 0000.0001) %MON dynstat_theta_max            =   4.9295733984462E-02
(PID.TID 0000.0001) %MON dynstat_theta_min            =  -4.8950457788345E-02
(PID.TID 0000.0001) %MON dynstat_theta_mean           =   1.5313868527975E-02
(PID.TID 0000.0001) %MON dynstat_theta_sd             =   2.7352364841044E-02
(PID.TID 0000.0001) %MON dynstat_theta_del2           =   3.3412642182524E-05
(PID.TID 0000.0001) %MON dynstat_salt_max             =   3.5000000000000E+01
(PID.TID 0000.0001) %MON dynstat_salt_min             =   3.5000000000000E+01
(PID.TID 0000.0001) %MON dynstat_salt_mean            =   3.5000000000000E+01
(PID.TID 0000.0001) %MON dynstat_salt_sd              =   3.4816594052245E-13
(PID.TID 0000.0001) %MON dynstat_salt_del2            =   2.6218552499998E-01
(PID.TID 0000.0001) %MON advcfl_uvel_max              =   4.8337959723894E-02
(PID.TID 0000.0001) %MON advcfl_vvel_max              =   0.0000000000000E+00
(PID.TID 0000.0001) %MON advcfl_wvel_max              =   1.4372095357070E-01
(PID.TID 0000.0001) %MON advcfl_W_hf_max              =   1.4372095357070E-01
(PID.TID 0000.0001) %MON pe_b_mean                    =   5.0593601181640E-11
(PID.TID 0000.0001) %MON ke_max                       =   2.3757825656494E-04
(PID.TID 0000.0001) %MON ke_mean                      =   1.6413085846567E-05
(PID.TID 0000.0001) %MON ke_vol                       =   6.4007813759742E+09
(PID.TID 0000.0001) %MON vort_r_min                   =   0.0000000000000E+00
(PID.TID 0000.0001) %MON vort_r_max                   =   0.0000000000000E+00
(PID.TID 0000.0001) %MON vort_a_mean                  =   0.0000000000000E+00
(PID.TID 0000.0001) %MON vort_a_sd                    =   0.0000000000000E+00
(PID.TID 0000.0001) %MON vort_p_mean                  =   0.0000000000000E+00
(PID.TID 0000.0001) %MON vort_p_sd                    =   0.0000000000000E+00
(PID.TID 0000.0001) %MON surfExpan_theta_mean         =  -4.6455994587729E-13
(PID.TID 0000.0001) %MON surfExpan_salt_mean          =   2.4228264369269E-19
(PID.TID 0000.0001) // =======================================================
(PID.TID 0000.0001) // End MONITOR dynamic field statistics
(PID.TID 0000.0001) // =======================================================
(PID.TID 0000.0001) // =======================================================
(PID.TID 0000.0001) // Begin OBCS MONITOR field statistics
(PID.TID 0000.0001) // =======================================================
(PID.TID 0000.0001) %MON obc_W_uVel_max               =   1.8454294615694E-02
(PID.TID 0000.0001) %MON obc_W_uVel_min               =  -1.8454294615694E-02
(PID.TID 0000.0001) %MON obc_W_uVel_mean              =  -9.0949470177293E-19
(PID.TID 0000.0001) %MON obc_W_uVel_sd                =   1.3089507447831E-02
(PID.TID 0000.0001) %MON obc_W_uVel_Int               =  -9.0949470177293E-13
(PID.TID 0000.0001) // =======================================================
(PID.TID 0000.0001) // End OBCS MONITOR field statistics
(PID.TID 0000.0001) // =======================================================
 cg2d: Sum(rhs),rhsMax =  -7.43435261268965E-14  7.57251585378430E-04
 cg2d: Sum(rhs),rhsMax =  -8.44554461087998E-14  7.30391628758012E-04
 cg2d: Sum(rhs),rhsMax =  -8.03114085651258E-14  7.26001120189105E-04
 cg2d: Sum(rhs),rhsMax =  -7.74144203602445E-14  6.90283777481843E-04
 cg2d: Sum(rhs),rhsMax =  -7.57230649711671E-14  6.78793998897416E-04
 cg2d: Sum(rhs),rhsMax =  -8.05489572611173E-14  6.33976852950554E-04
 cg2d: Sum(rhs),rhsMax =  -7.39417208017734E-14  6.15026418976430E-04
 cg2d: Sum(rhs),rhsMax =  -8.79979682871790E-14  5.60976097742379E-04
 cg2d: Sum(rhs),rhsMax =  -7.79315847965201E-14  5.34434412519197E-04
 cg2d: Sum(rhs),rhsMax =  -8.94527507622200E-14  4.71343440896133E-04
 cg2d: Sum(rhs),rhsMax =  -8.39776382113855E-14  4.37508819722102E-04
 cg2d: Sum(rhs),rhsMax =  -9.73047597357946E-14  3.66105488423935E-04
 cg2d: Sum(rhs),rhsMax =  -1.06753581669006E-13  3.25871481453656E-04
 cg2d: Sum(rhs),rhsMax =  -9.46426097214736E-14  3.53181945091830E-04
 cg2d: Sum(rhs),rhsMax =  -8.59550603436732E-14  3.67504923287345E-04
 cg2d: Sum(rhs),rhsMax =  -7.97158021016708E-14  4.18264726698369E-04
(PID.TID 0000.0001)      cg2d_init_res =   2.71469286800425E-01
(PID.TID 0000.0001)      cg2d_iters(min,last) =      -1      58
(PID.TID 0000.0001)      cg2d_last_res =   2.55287122003935E-18
(PID.TID 0000.0001) // =======================================================
(PID.TID 0000.0001) // Begin MONITOR dynamic field statistics
(PID.TID 0000.0001) // =======================================================
(PID.TID 0000.0001) %MON time_tsnumber                =                    80
(PID.TID 0000.0001) %MON time_secondsf                =   3.6000000000000E+04
(PID.TID 0000.0001) %MON dynstat_eta_max              =   1.2022784831242E-04
(PID.TID 0000.0001) %MON dynstat_eta_min              =  -1.7842330042121E-04
(PID.TID 0000.0001) %MON dynstat_eta_mean             =   1.2571200108316E-16
(PID.TID 0000.0001) %MON dynstat_eta_sd               =   4.5784340482984E-05
(PID.TID 0000.0001) %MON dynstat_eta_del2             =   1.2769276864580E-06
(PID.TID 0000.0001) %MON dynstat_uvel_max             =   2.3125987471910E-02
(PID.TID 0000.0001) %MON dynstat_uvel_min             =  -2.3296059070172E-02
(PID.TID 0000.0001) %MON dynstat_uvel_mean            =   5.5156670647521E-08
(PID.TID 0000.0001) %MON dynstat_uvel_sd              =   7.2663349992909E-03
(PID.TID 0000.0001) %MON dynstat_uvel_del2            =   6.8559371074301E-05
(PID.TID 0000.0001) %MON dynstat_vvel_max             =   0.0000000000000E+00
(PID.TID 0000.0001) %MON dynstat_vvel_min             =   0.0000000000000E+00
(PID.TID 0000.0001) %MON dynstat_vvel_mean            =   0.0000000000000E+00
(PID.TID 0000.0001) %MON dynstat_vvel_sd              =   0.0000000000000E+00
(PID.TID 0000.0001) %MON dynstat_vvel_del2            =   0.0000000000000E+00
(PID.TID 0000.0001) %MON dynstat_wvel_max             =   3.2307783379106E-03
(PID.TID 0000.0001) %MON dynstat_wvel_min             =  -2.2815307979637E-03
(PID.TID 0000.0001) %MON dynstat_wvel_mean            =   1.4235625767202E-04
(PID.TID 0000.0001) %MON dynstat_wvel_sd              =   8.8957006386864E-04
(PID.TID 0000.0001) %MON dynstat_wvel_del2            =   1.7264723413149E-05
(PID.TID 0000.0001) %MON dynstat_theta_max            =   4.9289826730962E-02
(PID.TID 0000.0001) %MON dynstat_theta_min            =  -4.9324950533888E-02
(PID.TID 0000.0001) %MON dynstat_theta_mean           =   1.4801083760939E-02
(PID.TID 0000.0001) %MON dynstat_theta_sd             =   2.7711635079682E-02
(PID.TID 0000.0001) %MON dynstat_theta_del2           =   3.3822005026091E-05
(PID.TID 0000.0001) %MON dynstat_salt_max             =   3.5000000000000E+01
(PID.TID 0000.0001) %MON dynstat_salt_min             =   3.5000000000000E+01
(PID.TID 0000.0001) %MON dynstat_salt_mean            =   3.5000000000000E+01
(PID.TID 0000.0001) %MON dynstat_salt_sd              =   3.4816594052245E-13
(PID.TID 0000.0001) %MON dynstat_salt_del2            =   2.6218552499998E-01
(PID.TID 0000.0001) %MON advcfl_uvel_max              =   4.8080964020768E-02
(PID.TID 0000.0001) %MON advcfl_vvel_max              =   0.0000000000000E+00
(PID.TID 0000.0001) %MON advcfl_wvel_max              =   1.4538502520598E-01
(PID.TID 0000.0001) %MON advcfl_W_hf_max              =   1.4538502520598E-01
(PID.TID 0000.0001) %MON pe_b_mean                    =   1.0156866566502E-10
(PID.TID 0000.0001) %MON ke_max                       =   2.5345693073209E-04
(PID.TID 0000.0001) %MON ke_mean                      =   2.4381412033726E-05
(PID.TID 0000.0001) %MON ke_vol                       =   6.4007813759742E+09
(PID.TID 0000.0001) %MON vort_r_min                   =   0.0000000000000E+00
(PID.TID 0000.0001) %MON vort_r_max                   =   0.0000000000000E+00
(PID.TID 0000.0001) %MON vort_a_mean                  =   0.0000000000000E+00
(PID.TID 0000.0001) %MON vort_a_sd                    =   0.0000000000000E+00
(PID.TID 0000.0001) %MON vort_p_mean                  =   0.0000000000000E+00
(PID.TID 0000.0001) %MON vort_p_sd                    =   0.0000000000000E+00
(PID.TID 0000.0001) %MON surfExpan_theta_mean         =   9.4745419648167E-13
(PID.TID 0000.0001) %MON surfExpan_salt_mean          =  -7.2734484007662E-19
(PID.TID 0000.0001) // =======================================================
(PID.TID 0000.0001) // End MONITOR dynamic field statistics
(PID.TID 0000.0001) // =======================================================
(PID.TID 0000.0001) // =======================================================
(PID.TID 0000.0001) // Begin OBCS MONITOR field statistics
(PID.TID 0000.0001) // =======================================================
(PID.TID 0000.0001) %MON obc_W_uVel_max               =   2.1705175247924E-02
(PID.TID 0000.0001) %MON obc_W_uVel_min               =  -2.1705175247924E-02
(PID.TID 0000.0001) %MON obc_W_uVel_mean              =  -6.8212102632970E-19
(PID.TID 0000.0001) %MON obc_W_uVel_sd                =   1.5395335285401E-02
(PID.TID 0000.0001) %MON obc_W_uVel_Int               =  -6.8212102632970E-13
(PID.TID 0000.0001) // =======================================================
(PID.TID 0000.0001) // End OBCS MONITOR field statistics
(PID.TID 0000.0001) // =======================================================
 cg2d: Sum(rhs),rhsMax =  -7.99879639520190E-14  4.27896379311583E-04
 cg2d: Sum(rhs),rhsMax =  -6.45449134677872E-14  4.75258334742308E-04
 cg2d: Sum(rhs),rhsMax =  -5.37268797159984E-14  4.77082124048470E-04
 cg2d: Sum(rhs),rhsMax =  -4.58451839316885E-14  5.17809981024787E-04
 cg2d: Sum(rhs),rhsMax =  -4.71188843151338E-14  5.08974988397506E-04
 cg2d: Sum(rhs),rhsMax =  -3.69478753148300E-14  5.40425677067437E-04
 cg2d: Sum(rhs),rhsMax =  -3.38145310363469E-14  5.18988172392361E-04
 cg2d: Sum(rhs),rhsMax =  -2.92773075748209E-14  5.39654902735794E-04
 cg2d: Sum(rhs),rhsMax =  -2.80572006600144E-14  5.05007380344626E-04
 cg2d: Sum(rhs),rhsMax =  -2.18759472342400E-14  5.14820771414012E-04
 cg2d: Sum(rhs),rhsMax =  -1.96962671866752E-14  5.21452798779724E-04
 cg2d: Sum(rhs),rhsMax =  -1.86311469724254E-14  5.81982732170434E-04
 cg2d: Sum(rhs),rhsMax =  -2.34671223425797E-14  5.98822285095390E-04
 cg2d: Sum(rhs),rhsMax =  -3.19987092378682E-14  6.50123273825709E-04
 cg2d: Sum(rhs),rhsMax =  -2.78290845229234E-14  6.57803339145425E-04
 cg2d: Sum(rhs),rhsMax =  -2.75964147367080E-14  6.99789105950281E-04
(PID.TID 0000.0001)      cg2d_init_res =   1.02802541769955E-01
(PID.TID 0000.0001)      cg2d_iters(min,last) =      -1      58
(PID.TID 0000.0001)      cg2d_last_res =   1.08312692190120E-18
(PID.TID 0000.0001) // =======================================================
(PID.TID 0000.0001) // Begin MONITOR dynamic field statistics
(PID.TID 0000.0001) // =======================================================
(PID.TID 0000.0001) %MON time_tsnumber                =                    96
(PID.TID 0000.0001) %MON time_secondsf                =   4.3200000000000E+04
(PID.TID 0000.0001) %MON dynstat_eta_max              =   1.1840443006903E-04
(PID.TID 0000.0001) %MON dynstat_eta_min              =  -1.8054308521010E-04
(PID.TID 0000.0001) %MON dynstat_eta_mean             =   7.3746526449561E-17
(PID.TID 0000.0001) %MON dynstat_eta_sd               =   5.0950999799196E-05
(PID.TID 0000.0001) %MON dynstat_eta_del2             =   1.6051609778751E-06
(PID.TID 0000.0001) %MON dynstat_uvel_max             =   2.2755795688880E-02
(PID.TID 0000.0001) %MON dynstat_uvel_min             =  -2.2532784843704E-02
(PID.TID 0000.0001) %MON dynstat_uvel_mean            =   2.3634134548449E-08
(PID.TID 0000.0001) %MON dynstat_uvel_sd              =   7.4781047331993E-03
(PID.TID 0000.0001) %MON dynstat_uvel_del2            =   7.4177060591434E-05
(PID.TID 0000.0001) %MON dynstat_vvel_max             =   0.0000000000000E+00
(PID.TID 0000.0001) %MON dynstat_vvel_min             =   0.0000000000000E+00
(PID.TID 0000.0001) %MON dynstat_vvel_mean            =   0.0000000000000E+00
(PID.TID 0000.0001) %MON dynstat_vvel_sd              =   0.0000000000000E+00
(PID.TID 0000.0001) %MON dynstat_vvel_del2            =   0.0000000000000E+00
(PID.TID 0000.0001) %MON dynstat_wvel_max             =   3.1420043375090E-03
(PID.TID 0000.0001) %MON dynstat_wvel_min             =  -2.9361188308764E-03
(PID.TID 0000.0001) %MON dynstat_wvel_mean            =   2.9166459826262E-05
(PID.TID 0000.0001) %MON dynstat_wvel_sd              =   1.0097738925672E-03
(PID.TID 0000.0001) %MON dynstat_wvel_del2            =   2.5060963436553E-05
(PID.TID 0000.0001) %MON dynstat_theta_max            =   4.9283611437124E-02
(PID.TID 0000.0001) %MON dynstat_theta_min            =  -4.9280792469660E-02
(PID.TID 0000.0001) %MON dynstat_theta_mean           =   1.4468662375324E-02
(PID.TID 0000.0001) %MON dynstat_theta_sd             =   2.7926879419816E-02
(PID.TID 0000.0001) %MON dynstat_theta_del2           =   4.0334734647495E-05
(PID.TID 0000.0001) %MON dynstat_salt_max             =   3.5000000000000E+01
(PID.TID 0000.0001) %MON dynstat_salt_min             =   3.5000000000000E+01
(PID.TID 0000.0001) %MON dynstat_salt_mean            =   3.5000000000000E+01
(PID.TID 0000.0001) %MON dynstat_salt_sd              =   3.4816594052245E-13
(PID.TID 0000.0001) %MON dynstat_salt_del2            =   2.6218552499998E-01
(PID.TID 0000.0001) %MON advcfl_uvel_max              =   4.6965909147350E-02
(PID.TID 0000.0001) %MON advcfl_vvel_max              =   0.0000000000000E+00
(PID.TID 0000.0001) %MON advcfl_wvel_max              =   1.4139019518791E-01
(PID.TID 0000.0001) %MON advcfl_W_hf_max              =   1.4139019518791E-01
(PID.TID 0000.0001) %MON pe_b_mean                    =   1.2578569183557E-10
(PID.TID 0000.0001) %MON ke_max                       =   2.3992209990617E-04
(PID.TID 0000.0001) %MON ke_mean                      =   2.7876297258143E-05
(PID.TID 0000.0001) %MON ke_vol                       =   6.4007813759742E+09
(PID.TID 0000.0001) %MON vort_r_min                   =   0.0000000000000E+00
(PID.TID 0000.0001) %MON vort_r_max                   =   0.0000000000000E+00
(PID.TID 0000.0001) %MON vort_a_mean                  =   0.0000000000000E+00
(PID.TID 0000.0001) %MON vort_a_sd                    =   0.0000000000000E+00
(PID.TID 0000.0001) %MON vort_p_mean                  =   0.0000000000000E+00
(PID.TID 0000.0001) %MON vort_p_sd                    =   0.0000000000000E+00
(PID.TID 0000.0001) %MON surfExpan_theta_mean         =   3.6894274637941E-13
(PID.TID 0000.0001) %MON surfExpan_salt_mean          =   8.0117072412235E-19
(PID.TID 0000.0001) // =======================================================
(PID.TID 0000.0001) // End MONITOR dynamic field statistics
(PID.TID 0000.0001) // =======================================================
(PID.TID 0000.0001) // =======================================================
(PID.TID 0000.0001) // Begin OBCS MONITOR field statistics
(PID.TID 0000.0001) // =======================================================
(PID.TID 0000.0001) %MON obc_W_uVel_max               =   4.4470340274685E-03
(PID.TID 0000.0001) %MON obc_W_uVel_min               =  -4.4470340274685E-03
(PID.TID 0000.0001) %MON obc_W_uVel_mean              =  -5.6843418860808E-19
(PID.TID 0000.0001) %MON obc_W_uVel_sd                =   3.1542514214444E-03
(PID.TID 0000.0001) %MON obc_W_uVel_Int               =  -5.6843418860808E-13
(PID.TID 0000.0001) // =======================================================
(PID.TID 0000.0001) // End OBCS MONITOR field statistics
(PID.TID 0000.0001) // =======================================================
 cg2d: Sum(rhs),rhsMax =  -3.33066907387547E-14  6.98576877182224E-04
 cg2d: Sum(rhs),rhsMax =  -2.93125983555353E-14  7.31559689975397E-04
 cg2d: Sum(rhs),rhsMax =  -3.39429005735692E-14  7.22039178798408E-04
 cg2d: Sum(rhs),rhsMax =  -2.57738708847599E-14  7.46588326568128E-04
 cg2d: Sum(rhs),rhsMax =  -3.01653233641952E-14  7.29530978088208E-04
 cg2d: Sum(rhs),rhsMax =  -3.18963605527856E-14  7.46364792220449E-04
 cg2d: Sum(rhs),rhsMax =  -3.63319400606410E-14  7.22636936121527E-04
 cg2d: Sum(rhs),rhsMax =  -2.88903016093522E-14  7.32534614667043E-04
 cg2d: Sum(rhs),rhsMax =  -2.83527541722339E-14  7.03057494679811E-04
 cg2d: Sum(rhs),rhsMax =  -2.73257978744557E-14  7.06820042110718E-04
 cg2d: Sum(rhs),rhsMax =  -3.16471024733311E-14  6.72539566245821E-04
 cg2d: Sum(rhs),rhsMax =  -3.86888871634072E-14  6.70990268478248E-04
 cg2d: Sum(rhs),rhsMax =  -3.94207236298350E-14  6.32873100517982E-04
 cg2d: Sum(rhs),rhsMax =  -3.99493806091389E-14  6.26861123940782E-04
 cg2d: Sum(rhs),rhsMax =  -4.59515238360186E-14  5.85886058090031E-04
 cg2d: Sum(rhs),rhsMax =  -5.73712084783740E-14  5.76295320533156E-04
(PID.TID 0000.0001)      cg2d_init_res =   1.53409887653702E-01
(PID.TID 0000.0001)      cg2d_iters(min,last) =      -1      58
(PID.TID 0000.0001)      cg2d_last_res =   9.15106967696204E-20
(PID.TID 0000.0001) // =======================================================
(PID.TID 0000.0001) // Begin MONITOR dynamic field statistics
(PID.TID 0000.0001) // =======================================================
(PID.TID 0000.0001) %MON time_tsnumber                =                   112
(PID.TID 0000.0001) %MON time_secondsf                =   5.0400000000000E+04
(PID.TID 0000.0001) %MON dynstat_eta_max              =   1.1066001381430E-04
(PID.TID 0000.0001) %MON dynstat_eta_min              =  -1.8753100985153E-04
(PID.TID 0000.0001) %MON dynstat_eta_mean             =   1.1938703150848E-16
(PID.TID 0000.0001) %MON dynstat_eta_sd               =   5.2670738144059E-05
(PID.TID 0000.0001) %MON dynstat_eta_del2             =   1.6286612424266E-06
(PID.TID 0000.0001) %MON dynstat_uvel_max             =   2.2441932939969E-02
(PID.TID 0000.0001) %MON dynstat_uvel_min             =  -2.9288378277038E-02
(PID.TID 0000.0001) %MON dynstat_uvel_mean            =  -1.7798288950788E-08
(PID.TID 0000.0001) %MON dynstat_uvel_sd              =   7.7795377128753E-03
(PID.TID 0000.0001) %MON dynstat_uvel_del2            =   8.2663905957350E-05
(PID.TID 0000.0001) %MON dynstat_vvel_max             =   0.0000000000000E+00
(PID.TID 0000.0001) %MON dynstat_vvel_min             =   0.0000000000000E+00
(PID.TID 0000.0001) %MON dynstat_vvel_mean            =   0.0000000000000E+00
(PID.TID 0000.0001) %MON dynstat_vvel_sd              =   0.0000000000000E+00
(PID.TID 0000.0001) %MON dynstat_vvel_del2            =   0.0000000000000E+00
(PID.TID 0000.0001) %MON dynstat_wvel_max             =   3.0607038225666E-03
(PID.TID 0000.0001) %MON dynstat_wvel_min             =  -3.2225674983727E-03
(PID.TID 0000.0001) %MON dynstat_wvel_mean            =  -1.1158245952438E-04
(PID.TID 0000.0001) %MON dynstat_wvel_sd              =   1.1471933341232E-03
(PID.TID 0000.0001) %MON dynstat_wvel_del2            =   2.0687836616311E-05
(PID.TID 0000.0001) %MON dynstat_theta_max            =   4.9285348142128E-02
(PID.TID 0000.0001) %MON dynstat_theta_min            =  -4.9265367417601E-02
(PID.TID 0000.0001) %MON dynstat_theta_mean           =   1.4632383067021E-02
(PID.TID 0000.0001) %MON dynstat_theta_sd             =   2.7849685759510E-02
(PID.TID 0000.0001) %MON dynstat_theta_del2           =   4.5778977811097E-05
(PID.TID 0000.0001) %MON dynstat_salt_max             =   3.5000000000000E+01
(PID.TID 0000.0001) %MON dynstat_salt_min             =   3.5000000000000E+01
(PID.TID 0000.0001) %MON dynstat_salt_mean            =   3.5000000000000E+01
(PID.TID 0000.0001) %MON dynstat_salt_sd              =   3.4816594052245E-13
(PID.TID 0000.0001) %MON dynstat_salt_del2            =   2.6218552499998E-01
(PID.TID 0000.0001) %MON advcfl_uvel_max              =   6.0448570203361E-02
(PID.TID 0000.0001) %MON advcfl_vvel_max              =   0.0000000000000E+00
(PID.TID 0000.0001) %MON advcfl_wvel_max              =   1.4501553742677E-01
(PID.TID 0000.0001) %MON advcfl_W_hf_max              =   1.4501553742677E-01
(PID.TID 0000.0001) %MON pe_b_mean                    =   1.3442022910918E-10
(PID.TID 0000.0001) %MON ke_max                       =   3.1969163050503E-04
(PID.TID 0000.0001) %MON ke_mean                      =   2.9020532623500E-05
(PID.TID 0000.0001) %MON ke_vol                       =   6.4007813759742E+09
(PID.TID 0000.0001) %MON vort_r_min                   =   0.0000000000000E+00
(PID.TID 0000.0001) %MON vort_r_max                   =   0.0000000000000E+00
(PID.TID 0000.0001) %MON vort_a_mean                  =   0.0000000000000E+00
(PID.TID 0000.0001) %MON vort_a_sd                    =   0.0000000000000E+00
(PID.TID 0000.0001) %MON vort_p_mean                  =   0.0000000000000E+00
(PID.TID 0000.0001) %MON vort_p_sd                    =   0.0000000000000E+00
(PID.TID 0000.0001) %MON surfExpan_theta_mean         =  -6.1907821532488E-13
(PID.TID 0000.0001) %MON surfExpan_salt_mean          =   6.8594248766910E-19
(PID.TID 0000.0001) // =======================================================
(PID.TID 0000.0001) // End MONITOR dynamic field statistics
(PID.TID 0000.0001) // =======================================================
(PID.TID 0000.0001) // =======================================================
(PID.TID 0000.0001) // Begin OBCS MONITOR field statistics
(PID.TID 0000.0001) // =======================================================
(PID.TID 0000.0001) %MON obc_W_uVel_max               =   1.7013069029610E-02
(PID.TID 0000.0001) %MON obc_W_uVel_min               =  -1.7013069029610E-02
(PID.TID 0000.0001) %MON obc_W_uVel_mean              =  -2.2737367544323E-19
(PID.TID 0000.0001) %MON obc_W_uVel_sd                =   1.2067255802026E-02
(PID.TID 0000.0001) %MON obc_W_uVel_Int               =  -2.2737367544323E-13
(PID.TID 0000.0001) // =======================================================
(PID.TID 0000.0001) // End OBCS MONITOR field statistics
(PID.TID 0000.0001) // =======================================================
 cg2d: Sum(rhs),rhsMax =  -5.94038707113498E-14  5.33436750291599E-04
 cg2d: Sum(rhs),rhsMax =  -6.21234834408124E-14  5.21154871558572E-04
 cg2d: Sum(rhs),rhsMax =  -7.12151691784069E-14  4.77360044532400E-04
 cg2d: Sum(rhs),rhsMax =  -8.07760976162530E-14  4.63232214927958E-04
 cg2d: Sum(rhs),rhsMax =  -7.66071234226118E-14  4.36125582167843E-04
 cg2d: Sum(rhs),rhsMax =  -8.43435564445993E-14  4.27391063184681E-04
 cg2d: Sum(rhs),rhsMax =  -8.33447894033057E-14  4.29551760042780E-04
 cg2d: Sum(rhs),rhsMax =  -9.68613210472480E-14  4.39384578933395E-04
 cg2d: Sum(rhs),rhsMax =  -1.05774113426382E-13  4.37754747070959E-04
 cg2d: Sum(rhs),rhsMax =  -1.05455791668541E-13  4.42878570480344E-04
 cg2d: Sum(rhs),rhsMax =  -1.08162827652802E-13  4.34406718498703E-04
 cg2d: Sum(rhs),rhsMax =  -1.02925697478828E-13  4.31751594805617E-04
 cg2d: Sum(rhs),rhsMax =  -1.15830305416620E-13  4.13733085739790E-04
 cg2d: Sum(rhs),rhsMax =  -1.17194448590041E-13  4.12061256605764E-04
 cg2d: Sum(rhs),rhsMax =  -1.26157981630848E-13  4.11009112188986E-04
 cg2d: Sum(rhs),rhsMax =  -1.40742669255123E-13  4.15462973266336E-04
(PID.TID 0000.0001)      cg2d_init_res =   1.95771669518472E-01
(PID.TID 0000.0001)      cg2d_iters(min,last) =      -1      58
(PID.TID 0000.0001)      cg2d_last_res =   1.67971544694953E-18
(PID.TID 0000.0001) // =======================================================
(PID.TID 0000.0001) // Begin MONITOR dynamic field statistics
(PID.TID 0000.0001) // =======================================================
(PID.TID 0000.0001) %MON time_tsnumber                =                   128
(PID.TID 0000.0001) %MON time_secondsf                =   5.7600000000000E+04
(PID.TID 0000.0001) %MON dynstat_eta_max              =   1.0319464132728E-04
(PID.TID 0000.0001) %MON dynstat_eta_min              =  -1.8671420552865E-04
(PID.TID 0000.0001) %MON dynstat_eta_mean             =   2.1498972134424E-16
(PID.TID 0000.0001) %MON dynstat_eta_sd               =   5.4590297421656E-05
(PID.TID 0000.0001) %MON dynstat_eta_del2             =   1.7223629225713E-06
(PID.TID 0000.0001) %MON dynstat_uvel_max             =   2.3282380808223E-02
(PID.TID 0000.0001) %MON dynstat_uvel_min             =  -2.7741265168850E-02
(PID.TID 0000.0001) %MON dynstat_uvel_mean            =  -4.3750415906652E-08
(PID.TID 0000.0001) %MON dynstat_uvel_sd              =   8.8922265220636E-03
(PID.TID 0000.0001) %MON dynstat_uvel_del2            =   9.6931053331713E-05
(PID.TID 0000.0001) %MON dynstat_vvel_max             =   0.0000000000000E+00
(PID.TID 0000.0001) %MON dynstat_vvel_min             =   0.0000000000000E+00
(PID.TID 0000.0001) %MON dynstat_vvel_mean            =   0.0000000000000E+00
(PID.TID 0000.0001) %MON dynstat_vvel_sd              =   0.0000000000000E+00
(PID.TID 0000.0001) %MON dynstat_vvel_del2            =   0.0000000000000E+00
(PID.TID 0000.0001) %MON dynstat_wvel_max             =   3.3913086594339E-03
(PID.TID 0000.0001) %MON dynstat_wvel_min             =  -3.2140117992259E-03
(PID.TID 0000.0001) %MON dynstat_wvel_mean            =  -1.4689813198240E-04
(PID.TID 0000.0001) %MON dynstat_wvel_sd              =   1.1686098005499E-03
(PID.TID 0000.0001) %MON dynstat_wvel_del2            =   2.0595607452911E-05
(PID.TID 0000.0001) %MON dynstat_theta_max            =   4.9311687043562E-02
(PID.TID 0000.0001) %MON dynstat_theta_min            =  -4.9230225644827E-02
(PID.TID 0000.0001) %MON dynstat_theta_mean           =   1.5135807346956E-02
(PID.TID 0000.0001) %MON dynstat_theta_sd             =   2.7652781060776E-02
(PID.TID 0000.0001) %MON dynstat_theta_del2           =   5.0782270454631E-05
(PID.TID 0000.0001) %MON dynstat_salt_max             =   3.5000000000000E+01
(PID.TID 0000.0001) %MON dynstat_salt_min             =   3.5000000000000E+01
(PID.TID 0000.0001) %MON dynstat_salt_mean            =   3.5000000000000E+01
(PID.TID 0000.0001) %MON dynstat_salt_sd              =   3.4816594052245E-13
(PID.TID 0000.0001) %MON dynstat_salt_del2            =   2.6218552499998E-01
(PID.TID 0000.0001) %MON advcfl_uvel_max              =   5.7255468337214E-02
(PID.TID 0000.0001) %MON advcfl_vvel_max              =   0.0000000000000E+00
(PID.TID 0000.0001) %MON advcfl_wvel_max              =   1.5260888967453E-01
(PID.TID 0000.0001) %MON advcfl_W_hf_max              =   1.5260888967453E-01
(PID.TID 0000.0001) %MON pe_b_mean                    =   1.4439652531886E-10
(PID.TID 0000.0001) %MON ke_max                       =   3.2747689300005E-04
(PID.TID 0000.0001) %MON ke_mean                      =   3.7386595497788E-05
(PID.TID 0000.0001) %MON ke_vol                       =   6.4007813759742E+09
(PID.TID 0000.0001) %MON vort_r_min                   =   0.0000000000000E+00
(PID.TID 0000.0001) %MON vort_r_max                   =   0.0000000000000E+00
(PID.TID 0000.0001) %MON vort_a_mean                  =   0.0000000000000E+00
(PID.TID 0000.0001) %MON vort_a_sd                    =   0.0000000000000E+00
(PID.TID 0000.0001) %MON vort_p_mean                  =   0.0000000000000E+00
(PID.TID 0000.0001) %MON vort_p_sd                    =   0.0000000000000E+00
(PID.TID 0000.0001) %MON surfExpan_theta_mean         =   1.0019531964099E-12
(PID.TID 0000.0001) %MON surfExpan_salt_mean          =   2.0058003885142E-19
(PID.TID 0000.0001) // =======================================================
(PID.TID 0000.0001) // End MONITOR dynamic field statistics
(PID.TID 0000.0001) // =======================================================
(PID.TID 0000.0001) // =======================================================
(PID.TID 0000.0001) // Begin OBCS MONITOR field statistics
(PID.TID 0000.0001) // =======================================================
(PID.TID 0000.0001) %MON obc_W_uVel_max               =   2.2397678545447E-02
(PID.TID 0000.0001) %MON obc_W_uVel_min               =  -2.2397678545447E-02
(PID.TID 0000.0001) %MON obc_W_uVel_mean              =   1.3642420526594E-18
(PID.TID 0000.0001) %MON obc_W_uVel_sd                =   1.5886523231586E-02
(PID.TID 0000.0001) %MON obc_W_uVel_Int               =   1.3642420526594E-12
(PID.TID 0000.0001) // =======================================================
(PID.TID 0000.0001) // End OBCS MONITOR field statistics
(PID.TID 0000.0001) // =======================================================
 cg2d: Sum(rhs),rhsMax =  -1.42647395631745E-13  4.12744080918068E-04
 cg2d: Sum(rhs),rhsMax =  -1.58121129037458E-13  4.13910070815088E-04
 cg2d: Sum(rhs),rhsMax =  -1.61333836914967E-13  4.15011680137803E-04
 cg2d: Sum(rhs),rhsMax =  -1.54302677406182E-13  4.14666158524484E-04
 cg2d: Sum(rhs),rhsMax =  -1.48679245998151E-13  4.15790143384624E-04
 cg2d: Sum(rhs),rhsMax =  -1.39481416867870E-13  4.13687811802305E-04
 cg2d: Sum(rhs),rhsMax =  -1.60811901989133E-13  4.13927902021223E-04
 cg2d: Sum(rhs),rhsMax =  -1.51103684686155E-13  4.18276655379268E-04
 cg2d: Sum(rhs),rhsMax =  -1.48736925553727E-13  4.25533864949834E-04
 cg2d: Sum(rhs),rhsMax =  -1.46234126153708E-13  4.24220205102870E-04
 cg2d: Sum(rhs),rhsMax =  -1.38754025630350E-13  4.26828197528953E-04
 cg2d: Sum(rhs),rhsMax =  -1.37881107356227E-13  4.21625728509068E-04
 cg2d: Sum(rhs),rhsMax =  -1.51574282639122E-13  4.21333909080913E-04
 cg2d: Sum(rhs),rhsMax =  -1.65810453475052E-13  4.13801802556554E-04
 cg2d: Sum(rhs),rhsMax =  -1.62153493757367E-13  4.11711337463764E-04
 cg2d: Sum(rhs),rhsMax =  -1.77343762505083E-13  4.05830755241298E-04
(PID.TID 0000.0001)      cg2d_init_res =   2.20798647819711E-01
(PID.TID 0000.0001)      cg2d_iters(min,last) =      -1      58
(PID.TID 0000.0001)      cg2d_last_res =   1.10933627657763E-18
(PID.TID 0000.0001) // =======================================================
(PID.TID 0000.0001) // Begin MONITOR dynamic field statistics
(PID.TID 0000.0001) // =======================================================
(PID.TID 0000.0001) %MON time_tsnumber                =                   144
(PID.TID 0000.0001) %MON time_secondsf                =   6.4800000000000E+04
(PID.TID 0000.0001) %MON dynstat_eta_max              =   1.0633379144489E-04
(PID.TID 0000.0001) %MON dynstat_eta_min              =  -1.8196901483883E-04
(PID.TID 0000.0001) %MON dynstat_eta_mean             =   2.6351727962460E-16
(PID.TID 0000.0001) %MON dynstat_eta_sd               =   5.4897901220060E-05
(PID.TID 0000.0001) %MON dynstat_eta_del2             =   1.8687958396763E-06
(PID.TID 0000.0001) %MON dynstat_uvel_max             =   3.7474721137756E-02
(PID.TID 0000.0001) %MON dynstat_uvel_min             =  -3.1676520632847E-02
(PID.TID 0000.0001) %MON dynstat_uvel_mean            =  -1.9918951890966E-08
(PID.TID 0000.0001) %MON dynstat_uvel_sd              =   9.1374895141300E-03
(PID.TID 0000.0001) %MON dynstat_uvel_del2            =   1.1670623930645E-04
(PID.TID 0000.0001) %MON dynstat_vvel_max             =   0.0000000000000E+00
(PID.TID 0000.0001) %MON dynstat_vvel_min             =   0.0000000000000E+00
(PID.TID 0000.0001) %MON dynstat_vvel_mean            =   0.0000000000000E+00
(PID.TID 0000.0001) %MON dynstat_vvel_sd              =   0.0000000000000E+00
(PID.TID 0000.0001) %MON dynstat_vvel_del2            =   0.0000000000000E+00
(PID.TID 0000.0001) %MON dynstat_wvel_max             =   4.0930200347608E-03
(PID.TID 0000.0001) %MON dynstat_wvel_min             =  -3.2805881081295E-03
(PID.TID 0000.0001) %MON dynstat_wvel_mean            =  -4.3411101189559E-05
(PID.TID 0000.0001) %MON dynstat_wvel_sd              =   1.2532819182341E-03
(PID.TID 0000.0001) %MON dynstat_wvel_del2            =   2.9427315016346E-05
(PID.TID 0000.0001) %MON dynstat_theta_max            =   4.9343626106224E-02
(PID.TID 0000.0001) %MON dynstat_theta_min            =  -4.9230200267591E-02
(PID.TID 0000.0001) %MON dynstat_theta_mean           =   1.5504924512292E-02
(PID.TID 0000.0001) %MON dynstat_theta_sd             =   2.7494359889954E-02
(PID.TID 0000.0001) %MON dynstat_theta_del2           =   6.0643859712553E-05
(PID.TID 0000.0001) %MON dynstat_salt_max             =   3.5000000000000E+01
(PID.TID 0000.0001) %MON dynstat_salt_min             =   3.5000000000000E+01
(PID.TID 0000.0001) %MON dynstat_salt_mean            =   3.5000000000000E+01
(PID.TID 0000.0001) %MON dynstat_salt_sd              =   3.5527136788005E-13
(PID.TID 0000.0001) %MON dynstat_salt_del2            =   2.6218552499998E-01
(PID.TID 0000.0001) %MON advcfl_uvel_max              =   7.7344443250481E-02
(PID.TID 0000.0001) %MON advcfl_vvel_max              =   0.0000000000000E+00
(PID.TID 0000.0001) %MON advcfl_wvel_max              =   1.8418590156423E-01
(PID.TID 0000.0001) %MON advcfl_W_hf_max              =   1.8418590156423E-01
(PID.TID 0000.0001) %MON pe_b_mean                    =   1.4602839256791E-10
(PID.TID 0000.0001) %MON ke_max                       =   3.8358925153989E-04
(PID.TID 0000.0001) %MON ke_mean                      =   4.1559158058127E-05
(PID.TID 0000.0001) %MON ke_vol                       =   6.4007813759742E+09
(PID.TID 0000.0001) %MON vort_r_min                   =   0.0000000000000E+00
(PID.TID 0000.0001) %MON vort_r_max                   =   0.0000000000000E+00
(PID.TID 0000.0001) %MON vort_a_mean                  =   0.0000000000000E+00
(PID.TID 0000.0001) %MON vort_a_sd                    =   0.0000000000000E+00
(PID.TID 0000.0001) %MON vort_p_mean                  =   0.0000000000000E+00
(PID.TID 0000.0001) %MON vort_p_sd                    =   0.0000000000000E+00
(PID.TID 0000.0001) %MON surfExpan_theta_mean         =  -7.8522516315733E-13
(PID.TID 0000.0001) %MON surfExpan_salt_mean          =   1.4938875475866E-19
(PID.TID 0000.0001) // =======================================================
(PID.TID 0000.0001) // End MONITOR dynamic field statistics
(PID.TID 0000.0001) // =======================================================
(PID.TID 0000.0001) // =======================================================
(PID.TID 0000.0001) // Begin OBCS MONITOR field statistics
(PID.TID 0000.0001) // =======================================================
(PID.TID 0000.0001) %MON obc_W_uVel_max               =   6.6189261675845E-03
(PID.TID 0000.0001) %MON obc_W_uVel_min               =  -6.6189261675845E-03
(PID.TID 0000.0001) %MON obc_W_uVel_mean              =   6.8212102632970E-19
(PID.TID 0000.0001) %MON obc_W_uVel_sd                =   4.6947599554177E-03
(PID.TID 0000.0001) %MON obc_W_uVel_Int               =   6.8212102632970E-13
(PID.TID 0000.0001) // =======================================================
(PID.TID 0000.0001) // End OBCS MONITOR field statistics
(PID.TID 0000.0001) // =======================================================
 cg2d: Sum(rhs),rhsMax =  -1.75699949381269E-13  4.10103930023195E-04
 cg2d: Sum(rhs),rhsMax =  -1.69837830864966E-13  4.39995971276716E-04
 cg2d: Sum(rhs),rhsMax =  -1.62496535324741E-13  4.75697782472541E-04
 cg2d: Sum(rhs),rhsMax =  -1.39644806135264E-13  5.07296561147893E-04
 cg2d: Sum(rhs),rhsMax =  -1.34637418401640E-13  5.40888636896919E-04
 cg2d: Sum(rhs),rhsMax =  -1.28736783603159E-13  5.71607414911509E-04
 cg2d: Sum(rhs),rhsMax =  -1.18985984259856E-13  6.02176525444845E-04
 cg2d: Sum(rhs),rhsMax =  -1.15752446148108E-13  6.31048510020723E-04
 cg2d: Sum(rhs),rhsMax =  -1.25210714192747E-13  6.57599726817095E-04
 cg2d: Sum(rhs),rhsMax =  -1.22517183301796E-13  6.83597040154736E-04
 cg2d: Sum(rhs),rhsMax =  -1.24904616814400E-13  7.05075243630319E-04
 cg2d: Sum(rhs),rhsMax =  -1.23119071361588E-13  7.27121482844729E-04
 cg2d: Sum(rhs),rhsMax =  -1.19521471712847E-13  7.42447958019604E-04
 cg2d: Sum(rhs),rhsMax =  -1.18278325501875E-13  7.59442693903200E-04
 cg2d: Sum(rhs),rhsMax =  -1.19775527386914E-13  7.67542567023432E-04
 cg2d: Sum(rhs),rhsMax =  -1.16420653499538E-13  7.78401059653068E-04
(PID.TID 0000.0001)      cg2d_init_res =   1.20342452730604E-01
(PID.TID 0000.0001)      cg2d_iters(min,last) =      -1      58
(PID.TID 0000.0001)      cg2d_last_res =   1.13430171794155E-19
(PID.TID 0000.0001) // =======================================================
(PID.TID 0000.0001) // Begin MONITOR dynamic field statistics
(PID.TID 0000.0001) // =======================================================
(PID.TID 0000.0001) %MON time_tsnumber                =                   160
(PID.TID 0000.0001) %MON time_secondsf                =   7.2000000000000E+04
(PID.TID 0000.0001) %MON dynstat_eta_max              =   1.1742008654880E-04
(PID.TID 0000.0001) %MON dynstat_eta_min              =  -1.7932197705054E-04
(PID.TID 0000.0001) %MON dynstat_eta_mean             =   3.1504273800385E-16
(PID.TID 0000.0001) %MON dynstat_eta_sd               =   5.5835348911309E-05
(PID.TID 0000.0001) %MON dynstat_eta_del2             =   2.1803167494334E-06
(PID.TID 0000.0001) %MON dynstat_uvel_max             =   4.1308215522339E-02
(PID.TID 0000.0001) %MON dynstat_uvel_min             =  -2.9341118374456E-02
(PID.TID 0000.0001) %MON dynstat_uvel_mean            =   3.5174746252506E-08
(PID.TID 0000.0001) %MON dynstat_uvel_sd              =   9.1945650046266E-03
(PID.TID 0000.0001) %MON dynstat_uvel_del2            =   1.3736222435948E-04
(PID.TID 0000.0001) %MON dynstat_vvel_max             =   0.0000000000000E+00
(PID.TID 0000.0001) %MON dynstat_vvel_min             =   0.0000000000000E+00
(PID.TID 0000.0001) %MON dynstat_vvel_mean            =   0.0000000000000E+00
(PID.TID 0000.0001) %MON dynstat_vvel_sd              =   0.0000000000000E+00
(PID.TID 0000.0001) %MON dynstat_vvel_del2            =   0.0000000000000E+00
(PID.TID 0000.0001) %MON dynstat_wvel_max             =   4.2772286521010E-03
(PID.TID 0000.0001) %MON dynstat_wvel_min             =  -3.2479632906369E-03
(PID.TID 0000.0001) %MON dynstat_wvel_mean            =   1.0109468263229E-04
(PID.TID 0000.0001) %MON dynstat_wvel_sd              =   1.3619712530393E-03
(PID.TID 0000.0001) %MON dynstat_wvel_del2            =   2.7708265135747E-05
(PID.TID 0000.0001) %MON dynstat_theta_max            =   4.9417668910610E-02
(PID.TID 0000.0001) %MON dynstat_theta_min            =  -4.8898638557373E-02
(PID.TID 0000.0001) %MON dynstat_theta_mean           =   1.5389339245527E-02
(PID.TID 0000.0001) %MON dynstat_theta_sd             =   2.7562960451993E-02
(PID.TID 0000.0001) %MON dynstat_theta_del2           =   7.3758646571805E-05
(PID.TID 0000.0001) %MON dynstat_salt_max             =   3.5000000000000E+01
(PID.TID 0000.0001) %MON dynstat_salt_min             =   3.5000000000000E+01
(PID.TID 0000.0001) %MON dynstat_salt_mean            =   3.5000000000000E+01
(PID.TID 0000.0001) %MON dynstat_salt_sd              =   3.5527136788005E-13
(PID.TID 0000.0001) %MON dynstat_salt_del2            =   2.6218552499998E-01
(PID.TID 0000.0001) %MON advcfl_uvel_max              =   8.5256429781069E-02
(PID.TID 0000.0001) %MON advcfl_vvel_max              =   0.0000000000000E+00
(PID.TID 0000.0001) %MON advcfl_wvel_max              =   1.9247528934454E-01
(PID.TID 0000.0001) %MON advcfl_W_hf_max              =   1.9247528934454E-01
(PID.TID 0000.0001) %MON pe_b_mean                    =   1.5105819483994E-10
(PID.TID 0000.0001) %MON ke_max                       =   4.2659216741001E-04
(PID.TID 0000.0001) %MON ke_mean                      =   4.1252097083215E-05
(PID.TID 0000.0001) %MON ke_vol                       =   6.4007813759742E+09
(PID.TID 0000.0001) %MON vort_r_min                   =   0.0000000000000E+00
(PID.TID 0000.0001) %MON vort_r_max                   =   0.0000000000000E+00
(PID.TID 0000.0001) %MON vort_a_mean                  =   0.0000000000000E+00
(PID.TID 0000.0001) %MON vort_a_sd                    =   0.0000000000000E+00
(PID.TID 0000.0001) %MON vort_p_mean                  =   0.0000000000000E+00
(PID.TID 0000.0001) %MON vort_p_sd                    =   0.0000000000000E+00
(PID.TID 0000.0001) %MON surfExpan_theta_mean         =   5.5804833295816E-13
(PID.TID 0000.0001) %MON surfExpan_salt_mean          =  -2.4783933295864E-18
(PID.TID 0000.0001) // =======================================================
(PID.TID 0000.0001) // End MONITOR dynamic field statistics
(PID.TID 0000.0001) // =======================================================
(PID.TID 0000.0001) // =======================================================
(PID.TID 0000.0001) // Begin OBCS MONITOR field statistics
(PID.TID 0000.0001) // =======================================================
(PID.TID 0000.0001) %MON obc_W_uVel_max               =   1.5413989093634E-02
(PID.TID 0000.0001) %MON obc_W_uVel_min               =  -1.5413989093634E-02
(PID.TID 0000.0001) %MON obc_W_uVel_mean              =   1.1368683772162E-19
(PID.TID 0000.0001) %MON obc_W_uVel_sd                =   1.0933039124146E-02
(PID.TID 0000.0001) %MON obc_W_uVel_Int               =   1.1368683772162E-13
(PID.TID 0000.0001) // =======================================================
(PID.TID 0000.0001) // End OBCS MONITOR field statistics
(PID.TID 0000.0001) // =======================================================
 cg2d: Sum(rhs),rhsMax =  -9.74312183666878E-14  7.78254856414339E-04
 cg2d: Sum(rhs),rhsMax =  -1.07387406259041E-13  7.81962793730898E-04
 cg2d: Sum(rhs),rhsMax =  -1.11134544492422E-13  7.72664258490606E-04
 cg2d: Sum(rhs),rhsMax =  -1.16933589547341E-13  7.68368032795247E-04
 cg2d: Sum(rhs),rhsMax =  -1.18290143305555E-13  7.49208417251335E-04
 cg2d: Sum(rhs),rhsMax =  -1.13899232927206E-13  7.36299481707840E-04
 cg2d: Sum(rhs),rhsMax =  -1.16876506302960E-13  7.06878885721231E-04
 cg2d: Sum(rhs),rhsMax =  -1.15864566205270E-13  6.85090165219341E-04
 cg2d: Sum(rhs),rhsMax =  -9.59813825640587E-14  7.17449102495456E-04
 cg2d: Sum(rhs),rhsMax =  -8.69282944238048E-14  7.76558670916268E-04
 cg2d: Sum(rhs),rhsMax =  -7.24559301445993E-14  8.33482504581007E-04
 cg2d: Sum(rhs),rhsMax =  -6.75475300693229E-14  8.80451474331308E-04
 cg2d: Sum(rhs),rhsMax =  -5.90716711657002E-14  9.22527243156761E-04
 cg2d: Sum(rhs),rhsMax =  -5.94828006295067E-14  9.51296863108876E-04
 cg2d: Sum(rhs),rhsMax =  -5.93723204281305E-14  9.72260025152144E-04
 cg2d: Sum(rhs),rhsMax =  -5.66866432266666E-14  9.76733676193627E-04
(PID.TID 0000.0001)      cg2d_init_res =   1.46624546203053E-01
(PID.TID 0000.0001)      cg2d_iters(min,last) =      -1      58
(PID.TID 0000.0001)      cg2d_last_res =   4.35893800002802E-19
(PID.TID 0000.0001) // =======================================================
(PID.TID 0000.0001) // Begin MONITOR dynamic field statistics
(PID.TID 0000.0001) // =======================================================
(PID.TID 0000.0001) %MON time_tsnumber                =                   176
(PID.TID 0000.0001) %MON time_secondsf                =   7.9200000000000E+04
(PID.TID 0000.0001) %MON dynstat_eta_max              =   1.2043812072104E-04
(PID.TID 0000.0001) %MON dynstat_eta_min              =  -2.0900220942874E-04
(PID.TID 0000.0001) %MON dynstat_eta_mean             =   1.8639248556729E-16
(PID.TID 0000.0001) %MON dynstat_eta_sd               =   6.2858682451942E-05
(PID.TID 0000.0001) %MON dynstat_eta_del2             =   2.8511467361995E-06
(PID.TID 0000.0001) %MON dynstat_uvel_max             =   4.6203865140751E-02
(PID.TID 0000.0001) %MON dynstat_uvel_min             =  -3.2754610412084E-02
(PID.TID 0000.0001) %MON dynstat_uvel_mean            =   6.2968180627745E-08
(PID.TID 0000.0001) %MON dynstat_uvel_sd              =   1.0128026755601E-02
(PID.TID 0000.0001) %MON dynstat_uvel_del2            =   1.6548730033618E-04
(PID.TID 0000.0001) %MON dynstat_vvel_max             =   0.0000000000000E+00
(PID.TID 0000.0001) %MON dynstat_vvel_min             =   0.0000000000000E+00
(PID.TID 0000.0001) %MON dynstat_vvel_mean            =   0.0000000000000E+00
(PID.TID 0000.0001) %MON dynstat_vvel_sd              =   0.0000000000000E+00
(PID.TID 0000.0001) %MON dynstat_vvel_del2            =   0.0000000000000E+00
(PID.TID 0000.0001) %MON dynstat_wvel_max             =   4.6567715808700E-03
(PID.TID 0000.0001) %MON dynstat_wvel_min             =  -3.2194139980444E-03
(PID.TID 0000.0001) %MON dynstat_wvel_mean            =   1.5007702415923E-04
(PID.TID 0000.0001) %MON dynstat_wvel_sd              =   1.3893607987018E-03
(PID.TID 0000.0001) %MON dynstat_wvel_del2            =   2.9419565220958E-05
(PID.TID 0000.0001) %MON dynstat_theta_max            =   4.9412821157644E-02
(PID.TID 0000.0001) %MON dynstat_theta_min            =  -4.9264736091331E-02
(PID.TID 0000.0001) %MON dynstat_theta_mean           =   1.4899485030430E-02
(PID.TID 0000.0001) %MON dynstat_theta_sd             =   2.7896204962239E-02
(PID.TID 0000.0001) %MON dynstat_theta_del2           =   8.8197427574553E-05
(PID.TID 0000.0001) %MON dynstat_salt_max             =   3.5000000000000E+01
(PID.TID 0000.0001) %MON dynstat_salt_min             =   3.5000000000000E+01
(PID.TID 0000.0001) %MON dynstat_salt_mean            =   3.5000000000000E+01
(PID.TID 0000.0001) %MON dynstat_salt_sd              =   3.4816594052245E-13
(PID.TID 0000.0001) %MON dynstat_salt_del2            =   2.6218552499998E-01
(PID.TID 0000.0001) %MON advcfl_uvel_max              =   9.5360608880723E-02
(PID.TID 0000.0001) %MON advcfl_vvel_max              =   0.0000000000000E+00
(PID.TID 0000.0001) %MON advcfl_wvel_max              =   2.0955472113915E-01
(PID.TID 0000.0001) %MON advcfl_W_hf_max              =   2.0955472113915E-01
(PID.TID 0000.0001) %MON pe_b_mean                    =   1.9145044023191E-10
(PID.TID 0000.0001) %MON ke_max                       =   5.3369928848617E-04
(PID.TID 0000.0001) %MON ke_mean                      =   4.9045184779704E-05
(PID.TID 0000.0001) %MON ke_vol                       =   6.4007813759742E+09
(PID.TID 0000.0001) %MON vort_r_min                   =   0.0000000000000E+00
(PID.TID 0000.0001) %MON vort_r_max                   =   0.0000000000000E+00
(PID.TID 0000.0001) %MON vort_a_mean                  =   0.0000000000000E+00
(PID.TID 0000.0001) %MON vort_a_sd                    =   0.0000000000000E+00
(PID.TID 0000.0001) %MON vort_p_mean                  =   0.0000000000000E+00
(PID.TID 0000.0001) %MON vort_p_sd                    =   0.0000000000000E+00
(PID.TID 0000.0001) %MON surfExpan_theta_mean         =   1.2837924195022E-12
(PID.TID 0000.0001) %MON surfExpan_salt_mean          =  -6.3420337457441E-19
(PID.TID 0000.0001) // =======================================================
(PID.TID 0000.0001) // End MONITOR dynamic field statistics
(PID.TID 0000.0001) // =======================================================
(PID.TID 0000.0001) // =======================================================
(PID.TID 0000.0001) // Begin OBCS MONITOR field statistics
(PID.TID 0000.0001) // =======================================================
(PID.TID 0000.0001) %MON obc_W_uVel_max               =   2.2882366840297E-02
(PID.TID 0000.0001) %MON obc_W_uVel_min               =  -2.2882366840297E-02
(PID.TID 0000.0001) %MON obc_W_uVel_mean              =  -1.3642420526594E-18
(PID.TID 0000.0001) %MON obc_W_uVel_sd                =   1.6230309389628E-02
(PID.TID 0000.0001) %MON obc_W_uVel_Int               =  -1.3642420526594E-12
(PID.TID 0000.0001) // =======================================================
(PID.TID 0000.0001) // End OBCS MONITOR field statistics
(PID.TID 0000.0001) // =======================================================
 cg2d: Sum(rhs),rhsMax =  -5.04573596446511E-14  9.70902293018279E-04
 cg2d: Sum(rhs),rhsMax =  -4.32423194474119E-14  9.46267223715561E-04
 cg2d: Sum(rhs),rhsMax =  -4.74975961339830E-14  9.09994249319547E-04
 cg2d: Sum(rhs),rhsMax =  -5.42562956368231E-14  8.54222199288095E-04
 cg2d: Sum(rhs),rhsMax =  -5.53359441601842E-14  8.68985283150068E-04
 cg2d: Sum(rhs),rhsMax =  -4.62449089438932E-14  9.52593730916810E-04
 cg2d: Sum(rhs),rhsMax =  -3.94064121611581E-14  1.03161930532272E-03
 cg2d: Sum(rhs),rhsMax =  -3.11855576085041E-14  1.09976339303204E-03
 cg2d: Sum(rhs),rhsMax =  -2.77059191561291E-14  1.15808124426211E-03
 cg2d: Sum(rhs),rhsMax =  -2.72867665962462E-14  1.20082431619164E-03
 cg2d: Sum(rhs),rhsMax =  -1.89462161237497E-14  1.22855121681272E-03
 cg2d: Sum(rhs),rhsMax =  -2.38841064981177E-14  1.23663319529203E-03
 cg2d: Sum(rhs),rhsMax =  -2.14502894613222E-14  1.22562350913945E-03
 cg2d: Sum(rhs),rhsMax =  -2.01759182277828E-14  1.19265288785067E-03
 cg2d: Sum(rhs),rhsMax =  -2.36828785749044E-14  1.13873261391727E-03
 cg2d: Sum(rhs),rhsMax =  -2.53631751018224E-14  1.06327099591029E-03
(PID.TID 0000.0001)      cg2d_init_res =   1.76949128747975E-01
(PID.TID 0000.0001)      cg2d_iters(min,last) =      -1      58
(PID.TID 0000.0001)      cg2d_last_res =   2.42227598410041E-19
(PID.TID 0000.0001) // =======================================================
(PID.TID 0000.0001) // Begin MONITOR dynamic field statistics
(PID.TID 0000.0001) // =======================================================
(PID.TID 0000.0001) %MON time_tsnumber                =                   192
(PID.TID 0000.0001) %MON time_secondsf                =   8.6400000000000E+04
(PID.TID 0000.0001) %MON dynstat_eta_max              =   1.1665962696622E-04
(PID.TID 0000.0001) %MON dynstat_eta_min              =  -2.1273745510826E-04
(PID.TID 0000.0001) %MON dynstat_eta_mean             =   9.4847528626936E-17
(PID.TID 0000.0001) %MON dynstat_eta_sd               =   6.7288335970752E-05
(PID.TID 0000.0001) %MON dynstat_eta_del2             =   3.7795278421039E-06
(PID.TID 0000.0001) %MON dynstat_uvel_max             =   5.1778510562929E-02
(PID.TID 0000.0001) %MON dynstat_uvel_min             =  -3.6470916113199E-02
(PID.TID 0000.0001) %MON dynstat_uvel_mean            =   2.7541501755160E-08
(PID.TID 0000.0001) %MON dynstat_uvel_sd              =   1.0435153305768E-02
(PID.TID 0000.0001) %MON dynstat_uvel_del2            =   1.9027174454016E-04
(PID.TID 0000.0001) %MON dynstat_vvel_max             =   0.0000000000000E+00
(PID.TID 0000.0001) %MON dynstat_vvel_min             =   0.0000000000000E+00
(PID.TID 0000.0001) %MON dynstat_vvel_mean            =   0.0000000000000E+00
(PID.TID 0000.0001) %MON dynstat_vvel_sd              =   0.0000000000000E+00
(PID.TID 0000.0001) %MON dynstat_vvel_del2            =   0.0000000000000E+00
(PID.TID 0000.0001) %MON dynstat_wvel_max             =   5.0210963158821E-03
(PID.TID 0000.0001) %MON dynstat_wvel_min             =  -3.3998938348062E-03
(PID.TID 0000.0001) %MON dynstat_wvel_mean            =   5.7252956251077E-05
(PID.TID 0000.0001) %MON dynstat_wvel_sd              =   1.4694504651622E-03
(PID.TID 0000.0001) %MON dynstat_wvel_del2            =   4.1476864697663E-05
(PID.TID 0000.0001) %MON dynstat_theta_max            =   4.9514534388042E-02
(PID.TID 0000.0001) %MON dynstat_theta_min            =  -4.9228954947740E-02
(PID.TID 0000.0001) %MON dynstat_theta_mean           =   1.4496390718609E-02
(PID.TID 0000.0001) %MON dynstat_theta_sd             =   2.8157057157860E-02
(PID.TID 0000.0001) %MON dynstat_theta_del2           =   1.0464032780909E-04
(PID.TID 0000.0001) %MON dynstat_salt_max             =   3.5000000000000E+01
(PID.TID 0000.0001) %MON dynstat_salt_min             =   3.5000000000000E+01
(PID.TID 0000.0001) %MON dynstat_salt_mean            =   3.5000000000000E+01
(PID.TID 0000.0001) %MON dynstat_salt_sd              =   3.4816594052245E-13
(PID.TID 0000.0001) %MON dynstat_salt_del2            =   2.6218552499998E-01
(PID.TID 0000.0001) %MON advcfl_uvel_max              =   1.0686617405657E-01
(PID.TID 0000.0001) %MON advcfl_vvel_max              =   0.0000000000000E+00
(PID.TID 0000.0001) %MON advcfl_wvel_max              =   2.2594933421470E-01
(PID.TID 0000.0001) %MON advcfl_W_hf_max              =   2.2594933421470E-01
(PID.TID 0000.0001) %MON pe_b_mean                    =   2.1938422629234E-10
(PID.TID 0000.0001) %MON ke_max                       =   6.7025353902883E-04
(PID.TID 0000.0001) %MON ke_mean                      =   5.4119732332698E-05
(PID.TID 0000.0001) %MON ke_vol                       =   6.4007813759742E+09
(PID.TID 0000.0001) %MON vort_r_min                   =   0.0000000000000E+00
(PID.TID 0000.0001) %MON vort_r_max                   =   0.0000000000000E+00
(PID.TID 0000.0001) %MON vort_a_mean                  =   0.0000000000000E+00
(PID.TID 0000.0001) %MON vort_a_sd                    =   0.0000000000000E+00
(PID.TID 0000.0001) %MON vort_p_mean                  =   0.0000000000000E+00
(PID.TID 0000.0001) %MON vort_p_sd                    =   0.0000000000000E+00
(PID.TID 0000.0001) %MON surfExpan_theta_mean         =  -1.5844069715417E-12
(PID.TID 0000.0001) %MON surfExpan_salt_mean          =  -6.9889636094404E-19
(PID.TID 0000.0001) // =======================================================
(PID.TID 0000.0001) // End MONITOR dynamic field statistics
(PID.TID 0000.0001) // =======================================================
(PID.TID 0000.0001) // =======================================================
(PID.TID 0000.0001) // Begin OBCS MONITOR field statistics
(PID.TID 0000.0001) // =======================================================
(PID.TID 0000.0001) %MON obc_W_uVel_max               =   8.7294051502423E-03
(PID.TID 0000.0001) %MON obc_W_uVel_min               =  -8.7294051502423E-03
(PID.TID 0000.0001) %MON obc_W_uVel_mean              =  -1.1368683772162E-19
(PID.TID 0000.0001) %MON obc_W_uVel_sd                =   6.1917085485380E-03
(PID.TID 0000.0001) %MON obc_W_uVel_Int               =  -1.1368683772162E-13
(PID.TID 0000.0001) // =======================================================
(PID.TID 0000.0001) // End OBCS MONITOR field statistics
(PID.TID 0000.0001) // =======================================================
 cg2d: Sum(rhs),rhsMax =  -2.40721071548267E-14  1.02957924189241E-03
 cg2d: Sum(rhs),rhsMax =  -2.74333507299662E-14  1.12759296649643E-03
 cg2d: Sum(rhs),rhsMax =  -2.77471188386835E-14  1.21313545878551E-03
 cg2d: Sum(rhs),rhsMax =  -2.18360485942926E-14  1.28859345337807E-03
 cg2d: Sum(rhs),rhsMax =  -2.37004426500986E-14  1.34497096999621E-03
 cg2d: Sum(rhs),rhsMax =  -2.30254183775092E-14  1.38548904936835E-03
 cg2d: Sum(rhs),rhsMax =  -2.04374277917863E-14  1.40107728169514E-03
 cg2d: Sum(rhs),rhsMax =  -2.44663230647424E-14  1.39642007433355E-03
 cg2d: Sum(rhs),rhsMax =  -2.57383090535024E-14  1.36316150060394E-03
 cg2d: Sum(rhs),rhsMax =  -2.76187493014612E-14  1.30798689880998E-03
 cg2d: Sum(rhs),rhsMax =  -3.26392558813726E-14  1.22390573320048E-03
 cg2d: Sum(rhs),rhsMax =  -3.48349821210903E-14  1.11986628752433E-03
 cg2d: Sum(rhs),rhsMax =  -2.89043962375946E-14  1.22548372766113E-03
 cg2d: Sum(rhs),rhsMax =  -2.36774575640419E-14  1.34392336233236E-03
 cg2d: Sum(rhs),rhsMax =  -1.95180243495185E-14  1.44647191674948E-03
 cg2d: Sum(rhs),rhsMax =  -2.23291437423390E-14  1.53321793684534E-03
(PID.TID 0000.0001)      cg2d_init_res =   1.49831031971678E-01
(PID.TID 0000.0001)      cg2d_iters(min,last) =      -1      58
(PID.TID 0000.0001)      cg2d_last_res =   1.04681627203980E-19
(PID.TID 0000.0001) // =======================================================
(PID.TID 0000.0001) // Begin MONITOR dynamic field statistics
(PID.TID 0000.0001) // =======================================================
(PID.TID 0000.0001) %MON time_tsnumber                =                   208
(PID.TID 0000.0001) %MON time_secondsf                =   9.3600000000000E+04
(PID.TID 0000.0001) %MON dynstat_eta_max              =   1.0573563212114E-04
(PID.TID 0000.0001) %MON dynstat_eta_min              =  -2.4517703951188E-04
(PID.TID 0000.0001) %MON dynstat_eta_mean             =   1.0824984208065E-16
(PID.TID 0000.0001) %MON dynstat_eta_sd               =   6.9407941217368E-05
(PID.TID 0000.0001) %MON dynstat_eta_del2             =   4.5308962050104E-06
(PID.TID 0000.0001) %MON dynstat_uvel_max             =   4.8306404239023E-02
(PID.TID 0000.0001) %MON dynstat_uvel_min             =  -3.7990590207541E-02
(PID.TID 0000.0001) %MON dynstat_uvel_mean            =  -1.5846727092313E-08
(PID.TID 0000.0001) %MON dynstat_uvel_sd              =   1.0369625879361E-02
(PID.TID 0000.0001) %MON dynstat_uvel_del2            =   2.1575764291253E-04
(PID.TID 0000.0001) %MON dynstat_vvel_max             =   0.0000000000000E+00
(PID.TID 0000.0001) %MON dynstat_vvel_min             =   0.0000000000000E+00
(PID.TID 0000.0001) %MON dynstat_vvel_mean            =   0.0000000000000E+00
(PID.TID 0000.0001) %MON dynstat_vvel_sd              =   0.0000000000000E+00
(PID.TID 0000.0001) %MON dynstat_vvel_del2            =   0.0000000000000E+00
(PID.TID 0000.0001) %MON dynstat_wvel_max             =   4.9372032474184E-03
(PID.TID 0000.0001) %MON dynstat_wvel_min             =  -4.3039308295877E-03
(PID.TID 0000.0001) %MON dynstat_wvel_mean            =  -8.9668907112398E-05
(PID.TID 0000.0001) %MON dynstat_wvel_sd              =   1.5735770404947E-03
(PID.TID 0000.0001) %MON dynstat_wvel_del2            =   4.6670274100183E-05
(PID.TID 0000.0001) %MON dynstat_theta_max            =   4.9558802327039E-02
(PID.TID 0000.0001) %MON dynstat_theta_min            =  -4.9931221740984E-02
(PID.TID 0000.0001) %MON dynstat_theta_mean           =   1.4562624075247E-02
(PID.TID 0000.0001) %MON dynstat_theta_sd             =   2.8123851637366E-02
(PID.TID 0000.0001) %MON dynstat_theta_del2           =   1.2555551389974E-04
(PID.TID 0000.0001) %MON dynstat_salt_max             =   3.5000000000000E+01
(PID.TID 0000.0001) %MON dynstat_salt_min             =   3.5000000000000E+01
(PID.TID 0000.0001) %MON dynstat_salt_mean            =   3.5000000000000E+01
(PID.TID 0000.0001) %MON dynstat_salt_sd              =   3.5527136788005E-13
(PID.TID 0000.0001) %MON dynstat_salt_del2            =   2.6218552499998E-01
(PID.TID 0000.0001) %MON advcfl_uvel_max              =   9.9700059876780E-02
(PID.TID 0000.0001) %MON advcfl_vvel_max              =   0.0000000000000E+00
(PID.TID 0000.0001) %MON advcfl_wvel_max              =   2.2217414613383E-01
(PID.TID 0000.0001) %MON advcfl_W_hf_max              =   2.2217414613383E-01
(PID.TID 0000.0001) %MON pe_b_mean                    =   2.3342326898507E-10
(PID.TID 0000.0001) %MON ke_max                       =   6.5954539462229E-04
(PID.TID 0000.0001) %MON ke_mean                      =   5.2963739242805E-05
(PID.TID 0000.0001) %MON ke_vol                       =   6.4007813759742E+09
(PID.TID 0000.0001) %MON vort_r_min                   =   0.0000000000000E+00
(PID.TID 0000.0001) %MON vort_r_max                   =   0.0000000000000E+00
(PID.TID 0000.0001) %MON vort_a_mean                  =   0.0000000000000E+00
(PID.TID 0000.0001) %MON vort_a_sd                    =   0.0000000000000E+00
(PID.TID 0000.0001) %MON vort_p_mean                  =   0.0000000000000E+00
(PID.TID 0000.0001) %MON vort_p_sd                    =   0.0000000000000E+00
(PID.TID 0000.0001) %MON surfExpan_theta_mean         =   2.6026903444618E-12
(PID.TID 0000.0001) %MON surfExpan_salt_mean          =   7.9711314609399E-19
(PID.TID 0000.0001) // =======================================================
(PID.TID 0000.0001) // End MONITOR dynamic field statistics
(PID.TID 0000.0001) // =======================================================
(PID.TID 0000.0001) // =======================================================
(PID.TID 0000.0001) // Begin OBCS MONITOR field statistics
(PID.TID 0000.0001) // =======================================================
(PID.TID 0000.0001) %MON obc_W_uVel_max               =   1.3671891738321E-02
(PID.TID 0000.0001) %MON obc_W_uVel_min               =  -1.3671891738321E-02
(PID.TID 0000.0001) %MON obc_W_uVel_mean              =   1.3642420526594E-18
(PID.TID 0000.0001) %MON obc_W_uVel_sd                =   9.6973811495621E-03
(PID.TID 0000.0001) %MON obc_W_uVel_Int               =   1.3642420526594E-12
(PID.TID 0000.0001) // =======================================================
(PID.TID 0000.0001) // End OBCS MONITOR field statistics
(PID.TID 0000.0001) // =======================================================
 cg2d: Sum(rhs),rhsMax =  -1.69456462750794E-14  1.59676743955359E-03
 cg2d: Sum(rhs),rhsMax =  -2.29911575888586E-14  1.63713347445604E-03
 cg2d: Sum(rhs),rhsMax =  -2.26281667015105E-14  1.64860959159858E-03
 cg2d: Sum(rhs),rhsMax =  -2.59616547010344E-14  1.63185711067471E-03
 cg2d: Sum(rhs),rhsMax =  -2.18917765859583E-14  1.58368903086247E-03
 cg2d: Sum(rhs),rhsMax =  -2.15962230737388E-14  1.50595024594128E-03
 cg2d: Sum(rhs),rhsMax =  -2.08485572555928E-14  1.39847315825545E-03
 cg2d: Sum(rhs),rhsMax =  -2.10129223049416E-14  1.26446841039545E-03
 cg2d: Sum(rhs),rhsMax =  -1.92814514354822E-14  1.24304153394044E-03
 cg2d: Sum(rhs),rhsMax =  -2.23519119879612E-14  1.37602555034011E-03
 cg2d: Sum(rhs),rhsMax =  -2.31988907251068E-14  1.49697859650148E-03
 cg2d: Sum(rhs),rhsMax =  -2.32700143876219E-14  1.59621430571009E-03
 cg2d: Sum(rhs),rhsMax =  -2.28055421769291E-14  1.67531998807469E-03
 cg2d: Sum(rhs),rhsMax =  -2.37962861221463E-14  1.72476261935675E-03
 cg2d: Sum(rhs),rhsMax =  -2.19310247046023E-14  1.74787645962860E-03
 cg2d: Sum(rhs),rhsMax =  -2.17230747279196E-14  1.73621129872474E-03
(PID.TID 0000.0001)      cg2d_init_res =   1.49858529825037E-01
(PID.TID 0000.0001)      cg2d_iters(min,last) =      -1      58
(PID.TID 0000.0001)      cg2d_last_res =   7.07303797883417E-20
(PID.TID 0000.0001) // =======================================================
(PID.TID 0000.0001) // Begin MONITOR dynamic field statistics
(PID.TID 0000.0001) // =======================================================
(PID.TID 0000.0001) %MON time_tsnumber                =                   224
(PID.TID 0000.0001) %MON time_secondsf                =   1.0080000000000E+05
(PID.TID 0000.0001) %MON dynstat_eta_max              =   1.0316892878625E-04
(PID.TID 0000.0001) %MON dynstat_eta_min              =  -2.5371461972075E-04
(PID.TID 0000.0001) %MON dynstat_eta_mean             =   1.4132014941786E-16
(PID.TID 0000.0001) %MON dynstat_eta_sd               =   7.0487738774742E-05
(PID.TID 0000.0001) %MON dynstat_eta_del2             =   5.1174550744812E-06
(PID.TID 0000.0001) %MON dynstat_uvel_max             =   6.4193371074550E-02
(PID.TID 0000.0001) %MON dynstat_uvel_min             =  -4.1113570889657E-02
(PID.TID 0000.0001) %MON dynstat_uvel_mean            =  -3.2920845558602E-08
(PID.TID 0000.0001) %MON dynstat_uvel_sd              =   1.1186229760731E-02
(PID.TID 0000.0001) %MON dynstat_uvel_del2            =   2.4663765045420E-04
(PID.TID 0000.0001) %MON dynstat_vvel_max             =   0.0000000000000E+00
(PID.TID 0000.0001) %MON dynstat_vvel_min             =   0.0000000000000E+00
(PID.TID 0000.0001) %MON dynstat_vvel_mean            =   0.0000000000000E+00
(PID.TID 0000.0001) %MON dynstat_vvel_sd              =   0.0000000000000E+00
(PID.TID 0000.0001) %MON dynstat_vvel_del2            =   0.0000000000000E+00
(PID.TID 0000.0001) %MON dynstat_wvel_max             =   4.8958034867722E-03
(PID.TID 0000.0001) %MON dynstat_wvel_min             =  -5.9108710218482E-03
(PID.TID 0000.0001) %MON dynstat_wvel_mean            =  -1.5186343911510E-04
(PID.TID 0000.0001) %MON dynstat_wvel_sd              =   1.6155603039201E-03
(PID.TID 0000.0001) %MON dynstat_wvel_del2            =   5.5197254381287E-05
(PID.TID 0000.0001) %MON dynstat_theta_max            =   4.9570999047772E-02
(PID.TID 0000.0001) %MON dynstat_theta_min            =  -4.9714947590963E-02
(PID.TID 0000.0001) %MON dynstat_theta_mean           =   1.5032374072286E-02
(PID.TID 0000.0001) %MON dynstat_theta_sd             =   2.7936716674473E-02
(PID.TID 0000.0001) %MON dynstat_theta_del2           =   1.3854515239433E-04
(PID.TID 0000.0001) %MON dynstat_salt_max             =   3.5000000000000E+01
(PID.TID 0000.0001) %MON dynstat_salt_min             =   3.5000000000000E+01
(PID.TID 0000.0001) %MON dynstat_salt_mean            =   3.5000000000000E+01
(PID.TID 0000.0001) %MON dynstat_salt_sd              =   3.5527136788005E-13
(PID.TID 0000.0001) %MON dynstat_salt_del2            =   2.6218552499998E-01
(PID.TID 0000.0001) %MON advcfl_uvel_max              =   1.3248932601477E-01
(PID.TID 0000.0001) %MON advcfl_vvel_max              =   0.0000000000000E+00
(PID.TID 0000.0001) %MON advcfl_wvel_max              =   2.6598919598317E-01
(PID.TID 0000.0001) %MON advcfl_W_hf_max              =   2.6598919598317E-01
(PID.TID 0000.0001) %MON pe_b_mean                    =   2.4074261816218E-10
(PID.TID 0000.0001) %MON ke_max                       =   1.0301972224787E-03
(PID.TID 0000.0001) %MON ke_mean                      =   6.0268863088196E-05
(PID.TID 0000.0001) %MON ke_vol                       =   6.4007813759742E+09
(PID.TID 0000.0001) %MON vort_r_min                   =   0.0000000000000E+00
(PID.TID 0000.0001) %MON vort_r_max                   =   0.0000000000000E+00
(PID.TID 0000.0001) %MON vort_a_mean                  =   0.0000000000000E+00
(PID.TID 0000.0001) %MON vort_a_sd                    =   0.0000000000000E+00
(PID.TID 0000.0001) %MON vort_p_mean                  =   0.0000000000000E+00
(PID.TID 0000.0001) %MON vort_p_sd                    =   0.0000000000000E+00
(PID.TID 0000.0001) %MON surfExpan_theta_mean         =   1.5090503068846E-12
(PID.TID 0000.0001) %MON surfExpan_salt_mean          =   2.7823918953129E-19
(PID.TID 0000.0001) // =======================================================
(PID.TID 0000.0001) // End MONITOR dynamic field statistics
(PID.TID 0000.0001) // =======================================================
(PID.TID 0000.0001) // =======================================================
(PID.TID 0000.0001) // Begin OBCS MONITOR field statistics
(PID.TID 0000.0001) // =======================================================
(PID.TID 0000.0001) %MON obc_W_uVel_max               =   2.3154742992331E-02
(PID.TID 0000.0001) %MON obc_W_uVel_min               =  -2.3154742992331E-02
(PID.TID 0000.0001) %MON obc_W_uVel_mean              =   2.2737367544323E-19
(PID.TID 0000.0001) %MON obc_W_uVel_sd                =   1.6423503968175E-02
(PID.TID 0000.0001) %MON obc_W_uVel_Int               =   2.2737367544323E-13
(PID.TID 0000.0001) // =======================================================
(PID.TID 0000.0001) // End OBCS MONITOR field statistics
(PID.TID 0000.0001) // =======================================================
 cg2d: Sum(rhs),rhsMax =  -2.31054324978386E-14  1.69552320664992E-03
 cg2d: Sum(rhs),rhsMax =  -2.93872998852196E-14  1.61914619598579E-03
 cg2d: Sum(rhs),rhsMax =  -3.27110300651912E-14  1.51555021921728E-03
 cg2d: Sum(rhs),rhsMax =  -3.83206921056312E-14  1.38010839242824E-03
 cg2d: Sum(rhs),rhsMax =  -4.20017753216539E-14  1.22923760326160E-03
 cg2d: Sum(rhs),rhsMax =  -4.11452556053904E-14  1.37137160253431E-03
 cg2d: Sum(rhs),rhsMax =  -3.86910555677522E-14  1.50050914864535E-03
 cg2d: Sum(rhs),rhsMax =  -3.54505921146275E-14  1.60887575270826E-03
 cg2d: Sum(rhs),rhsMax =  -3.48810607134209E-14  1.69560379512130E-03
 cg2d: Sum(rhs),rhsMax =  -3.06889930135057E-14  1.75478341857782E-03
 cg2d: Sum(rhs),rhsMax =  -3.36178567622580E-14  1.78604456075320E-03
 cg2d: Sum(rhs),rhsMax =  -3.41005435694486E-14  1.78585793772707E-03
 cg2d: Sum(rhs),rhsMax =  -3.62821751809239E-14  1.75499619390786E-03
 cg2d: Sum(rhs),rhsMax =  -3.34996787254571E-14  1.69275108821478E-03
 cg2d: Sum(rhs),rhsMax =  -4.42136561737416E-14  1.60112267156214E-03
 cg2d: Sum(rhs),rhsMax =  -4.26128316660668E-14  1.48219711229170E-03
(PID.TID 0000.0001)      cg2d_init_res =   1.80021181122964E-01
(PID.TID 0000.0001)      cg2d_iters(min,last) =      -1      58
(PID.TID 0000.0001)      cg2d_last_res =   8.06726621268912E-20
(PID.TID 0000.0001) // =======================================================
(PID.TID 0000.0001) // Begin MONITOR dynamic field statistics
(PID.TID 0000.0001) // =======================================================
(PID.TID 0000.0001) %MON time_tsnumber                =                   240
(PID.TID 0000.0001) %MON time_secondsf                =   1.0800000000000E+05
(PID.TID 0000.0001) %MON dynstat_eta_max              =   9.9126852840967E-05
(PID.TID 0000.0001) %MON dynstat_eta_min              =  -2.3053508835853E-04
(PID.TID 0000.0001) %MON dynstat_eta_mean             =   2.1945128568608E-16
(PID.TID 0000.0001) %MON dynstat_eta_sd               =   7.0021810118157E-05
(PID.TID 0000.0001) %MON dynstat_eta_del2             =   5.4956641357939E-06
(PID.TID 0000.0001) %MON dynstat_uvel_max             =   7.3178660838109E-02
(PID.TID 0000.0001) %MON dynstat_uvel_min             =  -4.5891978534587E-02
(PID.TID 0000.0001) %MON dynstat_uvel_mean            =  -2.3523741783565E-08
(PID.TID 0000.0001) %MON dynstat_uvel_sd              =   1.1525238858664E-02
(PID.TID 0000.0001) %MON dynstat_uvel_del2            =   2.7662995629440E-04
(PID.TID 0000.0001) %MON dynstat_vvel_max             =   0.0000000000000E+00
(PID.TID 0000.0001) %MON dynstat_vvel_min             =   0.0000000000000E+00
(PID.TID 0000.0001) %MON dynstat_vvel_mean            =   0.0000000000000E+00
(PID.TID 0000.0001) %MON dynstat_vvel_sd              =   0.0000000000000E+00
(PID.TID 0000.0001) %MON dynstat_vvel_del2            =   0.0000000000000E+00
(PID.TID 0000.0001) %MON dynstat_wvel_max             =   5.4724457900971E-03
(PID.TID 0000.0001) %MON dynstat_wvel_min             =  -5.9199942380274E-03
(PID.TID 0000.0001) %MON dynstat_wvel_mean            =  -7.0563594506701E-05
(PID.TID 0000.0001) %MON dynstat_wvel_sd              =   1.6571839466601E-03
(PID.TID 0000.0001) %MON dynstat_wvel_del2            =   6.5407425825833E-05
(PID.TID 0000.0001) %MON dynstat_theta_max            =   4.9611136415775E-02
(PID.TID 0000.0001) %MON dynstat_theta_min            =  -5.0202361135684E-02
(PID.TID 0000.0001) %MON dynstat_theta_mean           =   1.5462791640562E-02
(PID.TID 0000.0001) %MON dynstat_theta_sd             =   2.7758371603811E-02
(PID.TID 0000.0001) %MON dynstat_theta_del2           =   1.5415287383675E-04
(PID.TID 0000.0001) %MON dynstat_salt_max             =   3.5000000000000E+01
(PID.TID 0000.0001) %MON dynstat_salt_min             =   3.5000000000000E+01
(PID.TID 0000.0001) %MON dynstat_salt_mean            =   3.5000000000000E+01
(PID.TID 0000.0001) %MON dynstat_salt_sd              =   3.4816594052245E-13
(PID.TID 0000.0001) %MON dynstat_salt_del2            =   2.6218552499998E-01
(PID.TID 0000.0001) %MON advcfl_uvel_max              =   1.5103415338392E-01
(PID.TID 0000.0001) %MON advcfl_vvel_max              =   0.0000000000000E+00
(PID.TID 0000.0001) %MON advcfl_wvel_max              =   2.6639974071123E-01
(PID.TID 0000.0001) %MON advcfl_W_hf_max              =   2.6639974071123E-01
(PID.TID 0000.0001) %MON pe_b_mean                    =   2.3757048738595E-10
(PID.TID 0000.0001) %MON ke_max                       =   1.3387791005147E-03
(PID.TID 0000.0001) %MON ke_mean                      =   6.5919633033543E-05
(PID.TID 0000.0001) %MON ke_vol                       =   6.4007813759742E+09
(PID.TID 0000.0001) %MON vort_r_min                   =   0.0000000000000E+00
(PID.TID 0000.0001) %MON vort_r_max                   =   0.0000000000000E+00
(PID.TID 0000.0001) %MON vort_a_mean                  =   0.0000000000000E+00
(PID.TID 0000.0001) %MON vort_a_sd                    =   0.0000000000000E+00
(PID.TID 0000.0001) %MON vort_p_mean                  =   0.0000000000000E+00
(PID.TID 0000.0001) %MON vort_p_sd                    =   0.0000000000000E+00
(PID.TID 0000.0001) %MON surfExpan_theta_mean         =  -3.6830456724060E-12
(PID.TID 0000.0001) %MON surfExpan_salt_mean          =  -7.3369140394680E-19
(PID.TID 0000.0001) // =======================================================
(PID.TID 0000.0001) // End MONITOR dynamic field statistics
(PID.TID 0000.0001) // =======================================================
(PID.TID 0000.0001) // =======================================================
(PID.TID 0000.0001) // Begin OBCS MONITOR field statistics
(PID.TID 0000.0001) // =======================================================
(PID.TID 0000.0001) %MON obc_W_uVel_max               =   1.0758889071249E-02
(PID.TID 0000.0001) %MON obc_W_uVel_min               =  -1.0758889071249E-02
(PID.TID 0000.0001) %MON obc_W_uVel_mean              =  -4.5474735088646E-19
(PID.TID 0000.0001) %MON obc_W_uVel_sd                =   7.6312078874440E-03
(PID.TID 0000.0001) %MON obc_W_uVel_Int               =  -4.5474735088646E-13
(PID.TID 0000.0001) // =======================================================
(PID.TID 0000.0001) // End OBCS MONITOR field statistics
(PID.TID 0000.0001) // =======================================================
 cg2d: Sum(rhs),rhsMax =  -4.47586846058501E-14  1.33894568666244E-03
 cg2d: Sum(rhs),rhsMax =  -4.88157691352908E-14  1.23480263152724E-03
 cg2d: Sum(rhs),rhsMax =  -4.78806447615221E-14  1.36592343011774E-03
 cg2d: Sum(rhs),rhsMax =  -4.47836212558173E-14  1.48679074849672E-03
 cg2d: Sum(rhs),rhsMax =  -3.94720063925935E-14  1.58220312085495E-03
 cg2d: Sum(rhs),rhsMax =  -4.08077434690957E-14  1.66104352341968E-03
 cg2d: Sum(rhs),rhsMax =  -4.16478375224461E-14  1.70883017630922E-03
 cg2d: Sum(rhs),rhsMax =  -4.28408393829405E-14  1.73605616737613E-03
 cg2d: Sum(rhs),rhsMax =  -3.83199873742190E-14  1.72954155083706E-03
 cg2d: Sum(rhs),rhsMax =  -3.99456943217524E-14  1.70166734624125E-03
 cg2d: Sum(rhs),rhsMax =  -4.21613156713352E-14  1.64090452131749E-03
 cg2d: Sum(rhs),rhsMax =  -4.59676784483887E-14  1.56140218322233E-03
 cg2d: Sum(rhs),rhsMax =  -4.90534804616083E-14  1.45323340897054E-03
 cg2d: Sum(rhs),rhsMax =  -5.22693867355262E-14  1.33182544083048E-03
 cg2d: Sum(rhs),rhsMax =  -6.15432895888657E-14  1.18843716282823E-03
 cg2d: Sum(rhs),rhsMax =  -5.84019594837559E-14  1.24840850481674E-03
(PID.TID 0000.0001)      cg2d_init_res =   2.03190050752268E-01
(PID.TID 0000.0001)      cg2d_iters(min,last) =      -1      58
(PID.TID 0000.0001)      cg2d_last_res =   8.00965976826550E-20
(PID.TID 0000.0001) // =======================================================
(PID.TID 0000.0001) // Begin MONITOR dynamic field statistics
(PID.TID 0000.0001) // =======================================================
(PID.TID 0000.0001) %MON time_tsnumber                =                   256
(PID.TID 0000.0001) %MON time_secondsf                =   1.1520000000000E+05
(PID.TID 0000.0001) %MON dynstat_eta_max              =   1.1519559646440E-04
(PID.TID 0000.0001) %MON dynstat_eta_min              =  -2.2236878271145E-04
(PID.TID 0000.0001) %MON dynstat_eta_mean             =   2.8531356951496E-16
(PID.TID 0000.0001) %MON dynstat_eta_sd               =   6.8613984087243E-05
(PID.TID 0000.0001) %MON dynstat_eta_del2             =   5.7324090082114E-06
(PID.TID 0000.0001) %MON dynstat_uvel_max             =   9.1203573637948E-02
(PID.TID 0000.0001) %MON dynstat_uvel_min             =  -4.4330712547784E-02
(PID.TID 0000.0001) %MON dynstat_uvel_mean            =   1.7334669553346E-08
(PID.TID 0000.0001) %MON dynstat_uvel_sd              =   1.1450666046030E-02
(PID.TID 0000.0001) %MON dynstat_uvel_del2            =   2.8096618801000E-04
(PID.TID 0000.0001) %MON dynstat_vvel_max             =   0.0000000000000E+00
(PID.TID 0000.0001) %MON dynstat_vvel_min             =   0.0000000000000E+00
(PID.TID 0000.0001) %MON dynstat_vvel_mean            =   0.0000000000000E+00
(PID.TID 0000.0001) %MON dynstat_vvel_sd              =   0.0000000000000E+00
(PID.TID 0000.0001) %MON dynstat_vvel_del2            =   0.0000000000000E+00
(PID.TID 0000.0001) %MON dynstat_wvel_max             =   6.2948478492680E-03
(PID.TID 0000.0001) %MON dynstat_wvel_min             =  -5.6584100109804E-03
(PID.TID 0000.0001) %MON dynstat_wvel_mean            =   7.7411146075197E-05
(PID.TID 0000.0001) %MON dynstat_wvel_sd              =   1.7314834477185E-03
(PID.TID 0000.0001) %MON dynstat_wvel_del2            =   6.4279711926874E-05
(PID.TID 0000.0001) %MON dynstat_theta_max            =   4.9669210451840E-02
(PID.TID 0000.0001) %MON dynstat_theta_min            =  -5.0359922938124E-02
(PID.TID 0000.0001) %MON dynstat_theta_mean           =   1.5446457154491E-02
(PID.TID 0000.0001) %MON dynstat_theta_sd             =   2.7765436182372E-02
(PID.TID 0000.0001) %MON dynstat_theta_del2           =   1.6262844793877E-04
(PID.TID 0000.0001) %MON dynstat_salt_max             =   3.5000000000000E+01
(PID.TID 0000.0001) %MON dynstat_salt_min             =   3.5000000000000E+01
(PID.TID 0000.0001) %MON dynstat_salt_mean            =   3.5000000000000E+01
(PID.TID 0000.0001) %MON dynstat_salt_sd              =   3.5527136788005E-13
(PID.TID 0000.0001) %MON dynstat_salt_del2            =   2.6218552499998E-01
(PID.TID 0000.0001) %MON advcfl_uvel_max              =   1.8823594709486E-01
(PID.TID 0000.0001) %MON advcfl_vvel_max              =   0.0000000000000E+00
(PID.TID 0000.0001) %MON advcfl_wvel_max              =   2.8326815321706E-01
(PID.TID 0000.0001) %MON advcfl_W_hf_max              =   2.8326815321706E-01
(PID.TID 0000.0001) %MON pe_b_mean                    =   2.2811355709793E-10
(PID.TID 0000.0001) %MON ke_max                       =   2.0795229610831E-03
(PID.TID 0000.0001) %MON ke_mean                      =   6.4962024556273E-05
(PID.TID 0000.0001) %MON ke_vol                       =   6.4007813759742E+09
(PID.TID 0000.0001) %MON vort_r_min                   =   0.0000000000000E+00
(PID.TID 0000.0001) %MON vort_r_max                   =   0.0000000000000E+00
(PID.TID 0000.0001) %MON vort_a_mean                  =   0.0000000000000E+00
(PID.TID 0000.0001) %MON vort_a_sd                    =   0.0000000000000E+00
(PID.TID 0000.0001) %MON vort_p_mean                  =   0.0000000000000E+00
(PID.TID 0000.0001) %MON vort_p_sd                    =   0.0000000000000E+00
(PID.TID 0000.0001) %MON surfExpan_theta_mean         =   1.9833631384074E-12
(PID.TID 0000.0001) %MON surfExpan_salt_mean          =   1.9027734189065E-18
(PID.TID 0000.0001) // =======================================================
(PID.TID 0000.0001) // End MONITOR dynamic field statistics
(PID.TID 0000.0001) // =======================================================
(PID.TID 0000.0001) // =======================================================
(PID.TID 0000.0001) // Begin OBCS MONITOR field statistics
(PID.TID 0000.0001) // =======================================================
(PID.TID 0000.0001) %MON obc_W_uVel_max               =   1.1802940869490E-02
(PID.TID 0000.0001) %MON obc_W_uVel_min               =  -1.1802940869490E-02
(PID.TID 0000.0001) %MON obc_W_uVel_mean              =   4.5474735088646E-19
(PID.TID 0000.0001) %MON obc_W_uVel_sd                =   8.3717468283029E-03
(PID.TID 0000.0001) %MON obc_W_uVel_Int               =   4.5474735088646E-13
(PID.TID 0000.0001) // =======================================================
(PID.TID 0000.0001) // End OBCS MONITOR field statistics
(PID.TID 0000.0001) // =======================================================
 cg2d: Sum(rhs),rhsMax =  -5.95629502751077E-14  1.33909835515640E-03
 cg2d: Sum(rhs),rhsMax =  -5.64667128159779E-14  1.40916263910934E-03
 cg2d: Sum(rhs),rhsMax =  -5.71173425396865E-14  1.45623592459103E-03
 cg2d: Sum(rhs),rhsMax =  -5.27074315182646E-14  1.47984366832824E-03
 cg2d: Sum(rhs),rhsMax =  -5.29746060386194E-14  1.47999773632155E-03
 cg2d: Sum(rhs),rhsMax =  -5.45984698424595E-14  1.45694146912040E-03
 cg2d: Sum(rhs),rhsMax =  -5.12697523324945E-14  1.41306457793697E-03
 cg2d: Sum(rhs),rhsMax =  -5.14705465748388E-14  1.34912818795039E-03
 cg2d: Sum(rhs),rhsMax =  -5.10702591327572E-14  1.26955725157255E-03
 cg2d: Sum(rhs),rhsMax =  -5.54599768887165E-14  1.17516992526458E-03
 cg2d: Sum(rhs),rhsMax =  -5.52977802437127E-14  1.08808365542908E-03
 cg2d: Sum(rhs),rhsMax =  -4.59229008986650E-14  1.20409595338006E-03
 cg2d: Sum(rhs),rhsMax =  -4.04424757571853E-14  1.30023413704294E-03
 cg2d: Sum(rhs),rhsMax =  -3.17818688033711E-14  1.36805486740443E-03
 cg2d: Sum(rhs),rhsMax =  -3.27012722456388E-14  1.41244455656931E-03
 cg2d: Sum(rhs),rhsMax =  -3.09353237470944E-14  1.42722749781984E-03
(PID.TID 0000.0001)      cg2d_init_res =   1.76600684317453E-01
(PID.TID 0000.0001)      cg2d_iters(min,last) =      -1      58
(PID.TID 0000.0001)      cg2d_last_res =   1.13510728786696E-19
(PID.TID 0000.0001) // =======================================================
(PID.TID 0000.0001) // Begin MONITOR dynamic field statistics
(PID.TID 0000.0001) // =======================================================
(PID.TID 0000.0001) %MON time_tsnumber                =                   272
(PID.TID 0000.0001) %MON time_secondsf                =   1.2240000000000E+05
(PID.TID 0000.0001) %MON dynstat_eta_max              =   1.1320290153901E-04
(PID.TID 0000.0001) %MON dynstat_eta_min              =  -2.2400238593907E-04
(PID.TID 0000.0001) %MON dynstat_eta_mean             =   1.5194850403117E-16
(PID.TID 0000.0001) %MON dynstat_eta_sd               =   7.2706080034393E-05
(PID.TID 0000.0001) %MON dynstat_eta_del2             =   5.8591628510801E-06
(PID.TID 0000.0001) %MON dynstat_uvel_max             =   7.3980238215262E-02
(PID.TID 0000.0001) %MON dynstat_uvel_min             =  -3.8766156952916E-02
(PID.TID 0000.0001) %MON dynstat_uvel_mean            =   1.9266094482593E-08
(PID.TID 0000.0001) %MON dynstat_uvel_sd              =   1.2127832340049E-02
(PID.TID 0000.0001) %MON dynstat_uvel_del2            =   3.3809183058694E-04
(PID.TID 0000.0001) %MON dynstat_vvel_max             =   0.0000000000000E+00
(PID.TID 0000.0001) %MON dynstat_vvel_min             =   0.0000000000000E+00
(PID.TID 0000.0001) %MON dynstat_vvel_mean            =   0.0000000000000E+00
(PID.TID 0000.0001) %MON dynstat_vvel_sd              =   0.0000000000000E+00
(PID.TID 0000.0001) %MON dynstat_vvel_del2            =   0.0000000000000E+00
(PID.TID 0000.0001) %MON dynstat_wvel_max             =   6.4571377732636E-03
(PID.TID 0000.0001) %MON dynstat_wvel_min             =  -5.2388231734807E-03
(PID.TID 0000.0001) %MON dynstat_wvel_mean            =   1.5224080174701E-04
(PID.TID 0000.0001) %MON dynstat_wvel_sd              =   1.7325153683105E-03
(PID.TID 0000.0001) %MON dynstat_wvel_del2            =   6.4610155337016E-05
(PID.TID 0000.0001) %MON dynstat_theta_max            =   4.9710739607077E-02
(PID.TID 0000.0001) %MON dynstat_theta_min            =  -4.9702611913741E-02
(PID.TID 0000.0001) %MON dynstat_theta_mean           =   1.5000645452652E-02
(PID.TID 0000.0001) %MON dynstat_theta_sd             =   2.8055748622911E-02
(PID.TID 0000.0001) %MON dynstat_theta_del2           =   1.7213732457381E-04
(PID.TID 0000.0001) %MON dynstat_salt_max             =   3.5000000000000E+01
(PID.TID 0000.0001) %MON dynstat_salt_min             =   3.5000000000000E+01
(PID.TID 0000.0001) %MON dynstat_salt_mean            =   3.5000000000000E+01
(PID.TID 0000.0001) %MON dynstat_salt_sd              =   3.4816594052245E-13
(PID.TID 0000.0001) %MON dynstat_salt_del2            =   2.6218552499998E-01
(PID.TID 0000.0001) %MON advcfl_uvel_max              =   1.5268853676759E-01
(PID.TID 0000.0001) %MON advcfl_vvel_max              =   0.0000000000000E+00
(PID.TID 0000.0001) %MON advcfl_wvel_max              =   2.9057119979686E-01
(PID.TID 0000.0001) %MON advcfl_W_hf_max              =   2.9057119979686E-01
(PID.TID 0000.0001) %MON pe_b_mean                    =   2.5613402968124E-10
(PID.TID 0000.0001) %MON ke_max                       =   1.3682689115967E-03
(PID.TID 0000.0001) %MON ke_mean                      =   7.1233723156949E-05
(PID.TID 0000.0001) %MON ke_vol                       =   6.4007813759742E+09
(PID.TID 0000.0001) %MON vort_r_min                   =   0.0000000000000E+00
(PID.TID 0000.0001) %MON vort_r_max                   =   0.0000000000000E+00
(PID.TID 0000.0001) %MON vort_a_mean                  =   0.0000000000000E+00
(PID.TID 0000.0001) %MON vort_a_sd                    =   0.0000000000000E+00
(PID.TID 0000.0001) %MON vort_p_mean                  =   0.0000000000000E+00
(PID.TID 0000.0001) %MON vort_p_sd                    =   0.0000000000000E+00
(PID.TID 0000.0001) %MON surfExpan_theta_mean         =   2.0463522864981E-12
(PID.TID 0000.0001) %MON surfExpan_salt_mean          =  -6.0502094504821E-19
(PID.TID 0000.0001) // =======================================================
(PID.TID 0000.0001) // End MONITOR dynamic field statistics
(PID.TID 0000.0001) // =======================================================
(PID.TID 0000.0001) // =======================================================
(PID.TID 0000.0001) // Begin OBCS MONITOR field statistics
(PID.TID 0000.0001) // =======================================================
(PID.TID 0000.0001) %MON obc_W_uVel_max               =   2.3212279782014E-02
(PID.TID 0000.0001) %MON obc_W_uVel_min               =  -2.3212279782014E-02
(PID.TID 0000.0001) %MON obc_W_uVel_mean              =  -2.0463630789891E-18
(PID.TID 0000.0001) %MON obc_W_uVel_sd                =   1.6464314427354E-02
(PID.TID 0000.0001) %MON obc_W_uVel_Int               =  -2.0463630789891E-12
(PID.TID 0000.0001) // =======================================================
(PID.TID 0000.0001) // End OBCS MONITOR field statistics
(PID.TID 0000.0001) // =======================================================
 cg2d: Sum(rhs),rhsMax =  -2.41104879117326E-14  1.41983309617171E-03
 cg2d: Sum(rhs),rhsMax =  -1.97238059218563E-14  1.38622574946043E-03
 cg2d: Sum(rhs),rhsMax =  -2.74164371760754E-14  1.33561784669087E-03
 cg2d: Sum(rhs),rhsMax =  -2.71059216738756E-14  1.26520945798568E-03
 cg2d: Sum(rhs),rhsMax =  -2.25141086329650E-14  1.18480115567387E-03
 cg2d: Sum(rhs),rhsMax =  -2.92023349945936E-14  1.09187786957073E-03
 cg2d: Sum(rhs),rhsMax =  -2.80279272013573E-14  9.95867216717613E-04
 cg2d: Sum(rhs),rhsMax =  -2.27665108987196E-14  9.18420898285281E-04
 cg2d: Sum(rhs),rhsMax =  -2.33545821570758E-14  1.02364473162242E-03
 cg2d: Sum(rhs),rhsMax =  -1.93733917797090E-14  1.10604326662954E-03
 cg2d: Sum(rhs),rhsMax =  -2.02528965820292E-14  1.16132075705194E-03
 cg2d: Sum(rhs),rhsMax =  -1.43392242524243E-14  1.19603332757183E-03
 cg2d: Sum(rhs),rhsMax =  -1.06130382260261E-14  1.20100882891388E-03
 cg2d: Sum(rhs),rhsMax =  -1.30451205393456E-15  1.17331732623698E-03
 cg2d: Sum(rhs),rhsMax =  -3.84761666971656E-15  1.16219305469758E-03
 cg2d: Sum(rhs),rhsMax =  -2.79290479632266E-15  1.12871150958456E-03
(PID.TID 0000.0001)      cg2d_init_res =   2.54985648233165E-01
(PID.TID 0000.0001)      cg2d_iters(min,last) =      -1      58
(PID.TID 0000.0001)      cg2d_last_res =   9.68586905366463E-20
(PID.TID 0000.0001) // =======================================================
(PID.TID 0000.0001) // Begin MONITOR dynamic field statistics
(PID.TID 0000.0001) // =======================================================
(PID.TID 0000.0001) %MON time_tsnumber                =                   288
(PID.TID 0000.0001) %MON time_secondsf                =   1.2960000000000E+05
(PID.TID 0000.0001) %MON dynstat_eta_max              =   1.2069958819659E-04
(PID.TID 0000.0001) %MON dynstat_eta_min              =  -2.1672352493340E-04
(PID.TID 0000.0001) %MON dynstat_eta_mean             =   1.5389466234648E-17
(PID.TID 0000.0001) %MON dynstat_eta_sd               =   7.4489935572670E-05
(PID.TID 0000.0001) %MON dynstat_eta_del2             =   5.7800828889626E-06
(PID.TID 0000.0001) %MON dynstat_uvel_max             =   1.1075628490302E-01
(PID.TID 0000.0001) %MON dynstat_uvel_min             =  -4.0367628254302E-02
(PID.TID 0000.0001) %MON dynstat_uvel_mean            =  -1.1148899895602E-08
(PID.TID 0000.0001) %MON dynstat_uvel_sd              =   1.2555285522186E-02
(PID.TID 0000.0001) %MON dynstat_uvel_del2            =   3.6283335662932E-04
(PID.TID 0000.0001) %MON dynstat_vvel_max             =   0.0000000000000E+00
(PID.TID 0000.0001) %MON dynstat_vvel_min             =   0.0000000000000E+00
(PID.TID 0000.0001) %MON dynstat_vvel_mean            =   0.0000000000000E+00
(PID.TID 0000.0001) %MON dynstat_vvel_sd              =   0.0000000000000E+00
(PID.TID 0000.0001) %MON dynstat_vvel_del2            =   0.0000000000000E+00
(PID.TID 0000.0001) %MON dynstat_wvel_max             =   6.0724493930169E-03
(PID.TID 0000.0001) %MON dynstat_wvel_min             =  -4.6700257941035E-03
(PID.TID 0000.0001) %MON dynstat_wvel_mean            =   8.3219514303388E-05
(PID.TID 0000.0001) %MON dynstat_wvel_sd              =   1.7366571565645E-03
(PID.TID 0000.0001) %MON dynstat_wvel_del2            =   7.4301333231807E-05
(PID.TID 0000.0001) %MON dynstat_theta_max            =   4.9735546062154E-02
(PID.TID 0000.0001) %MON dynstat_theta_min            =  -4.9170455686336E-02
(PID.TID 0000.0001) %MON dynstat_theta_mean           =   1.4545263181738E-02
(PID.TID 0000.0001) %MON dynstat_theta_sd             =   2.8349190304151E-02
(PID.TID 0000.0001) %MON dynstat_theta_del2           =   1.8806171711657E-04
(PID.TID 0000.0001) %MON dynstat_salt_max             =   3.5000000000000E+01
(PID.TID 0000.0001) %MON dynstat_salt_min             =   3.5000000000000E+01
(PID.TID 0000.0001) %MON dynstat_salt_mean            =   3.5000000000000E+01
(PID.TID 0000.0001) %MON dynstat_salt_sd              =   3.5527136788005E-13
(PID.TID 0000.0001) %MON dynstat_salt_del2            =   2.6218552499998E-01
(PID.TID 0000.0001) %MON advcfl_uvel_max              =   2.2859097899157E-01
(PID.TID 0000.0001) %MON advcfl_vvel_max              =   0.0000000000000E+00
(PID.TID 0000.0001) %MON advcfl_wvel_max              =   2.7326022268576E-01
(PID.TID 0000.0001) %MON advcfl_W_hf_max              =   2.7326022268576E-01
(PID.TID 0000.0001) %MON pe_b_mean                    =   2.6885679619877E-10
(PID.TID 0000.0001) %MON ke_max                       =   3.0667386613798E-03
(PID.TID 0000.0001) %MON ke_mean                      =   7.8127816707485E-05
(PID.TID 0000.0001) %MON ke_vol                       =   6.4007813759742E+09
(PID.TID 0000.0001) %MON vort_r_min                   =   0.0000000000000E+00
(PID.TID 0000.0001) %MON vort_r_max                   =   0.0000000000000E+00
(PID.TID 0000.0001) %MON vort_a_mean                  =   0.0000000000000E+00
(PID.TID 0000.0001) %MON vort_a_sd                    =   0.0000000000000E+00
(PID.TID 0000.0001) %MON vort_p_mean                  =   0.0000000000000E+00
(PID.TID 0000.0001) %MON vort_p_sd                    =   0.0000000000000E+00
(PID.TID 0000.0001) %MON surfExpan_theta_mean         =  -6.5752414058835E-12
(PID.TID 0000.0001) %MON surfExpan_salt_mean          =  -1.3589670972381E-18
(PID.TID 0000.0001) // =======================================================
(PID.TID 0000.0001) // End MONITOR dynamic field statistics
(PID.TID 0000.0001) // =======================================================
(PID.TID 0000.0001) // =======================================================
(PID.TID 0000.0001) // Begin OBCS MONITOR field statistics
(PID.TID 0000.0001) // =======================================================
(PID.TID 0000.0001) %MON obc_W_uVel_max               =   1.2688547532373E-02
(PID.TID 0000.0001) %MON obc_W_uVel_min               =  -1.2688547532373E-02
(PID.TID 0000.0001) %MON obc_W_uVel_mean              =  -5.6843418860808E-19
(PID.TID 0000.0001) %MON obc_W_uVel_sd                =   8.9999016969149E-03
(PID.TID 0000.0001) %MON obc_W_uVel_Int               =  -5.6843418860808E-13
(PID.TID 0000.0001) // =======================================================
(PID.TID 0000.0001) // End OBCS MONITOR field statistics
(PID.TID 0000.0001) // =======================================================
 cg2d: Sum(rhs),rhsMax =  -8.01095301206090E-15  1.09690785017877E-03
 cg2d: Sum(rhs),rhsMax =  -4.43742265154867E-15  1.03824211591052E-03
 cg2d: Sum(rhs),rhsMax =  -1.58380253356682E-14  1.10428344095029E-03
 cg2d: Sum(rhs),rhsMax =  -1.39957490041809E-14  1.18987103080955E-03
 cg2d: Sum(rhs),rhsMax =  -1.21153087562220E-14  1.24717912265058E-03
 cg2d: Sum(rhs),rhsMax =  -8.90260087871297E-15  1.29448054967241E-03
 cg2d: Sum(rhs),rhsMax =  -3.12250225675825E-15  1.31089632557022E-03
 cg2d: Sum(rhs),rhsMax =  -9.45771239102555E-15  1.31668091831135E-03
 cg2d: Sum(rhs),rhsMax =  -9.07607322631065E-15  1.29227998953917E-03
 cg2d: Sum(rhs),rhsMax =  -7.05685510027365E-15  1.25976739802973E-03
 cg2d: Sum(rhs),rhsMax =  -1.57304724801577E-14  1.20077443208129E-03
 cg2d: Sum(rhs),rhsMax =  -2.99066327258402E-15  1.13885229494551E-03
(PID.TID 0000.0001) %CHECKPOINT       300 ckptA
(PID.TID 0000.0001)   Seconds in section "ALL                    [THE_MODEL_MAIN]":
(PID.TID 0000.0001)           User time:   10.890000000000001
(PID.TID 0000.0001)         System time:  2.00000000000000004E-002
(PID.TID 0000.0001)     Wall clock time:   10.953544855117798
(PID.TID 0000.0001)          No. starts:           1
(PID.TID 0000.0001)           No. stops:           1
(PID.TID 0000.0001)   Seconds in section "INITIALISE_FIXED       [THE_MODEL_MAIN]":
(PID.TID 0000.0001)           User time:  2.00000000000000004E-002
(PID.TID 0000.0001)         System time:   0.0000000000000000
(PID.TID 0000.0001)     Wall clock time:  3.91530990600585938E-002
(PID.TID 0000.0001)          No. starts:           1
(PID.TID 0000.0001)           No. stops:           1
(PID.TID 0000.0001)   Seconds in section "THE_MAIN_LOOP          [THE_MODEL_MAIN]":
(PID.TID 0000.0001)           User time:   10.870000000000001
(PID.TID 0000.0001)         System time:  2.00000000000000004E-002
(PID.TID 0000.0001)     Wall clock time:   10.914350986480713
(PID.TID 0000.0001)          No. starts:           1
(PID.TID 0000.0001)           No. stops:           1
(PID.TID 0000.0001)   Seconds in section "INITIALISE_VARIA    [THE_MAIN_LOOP]":
(PID.TID 0000.0001)           User time:  9.99999999999999847E-003
(PID.TID 0000.0001)         System time:   0.0000000000000000
(PID.TID 0000.0001)     Wall clock time:  1.20220184326171875E-002
(PID.TID 0000.0001)          No. starts:           1
(PID.TID 0000.0001)           No. stops:           1
(PID.TID 0000.0001)   Seconds in section "MAIN LOOP           [THE_MAIN_LOOP]":
(PID.TID 0000.0001)           User time:   10.860000000000001
(PID.TID 0000.0001)         System time:  2.00000000000000004E-002
(PID.TID 0000.0001)     Wall clock time:   10.902300119400024
(PID.TID 0000.0001)          No. starts:           1
(PID.TID 0000.0001)           No. stops:           1
(PID.TID 0000.0001)   Seconds in section "MAIN_DO_LOOP        [THE_MAIN_LOOP]":
(PID.TID 0000.0001)           User time:   10.850000000000017
(PID.TID 0000.0001)         System time:  1.99999999999999935E-002
(PID.TID 0000.0001)     Wall clock time:   10.899652004241943
(PID.TID 0000.0001)          No. starts:         300
(PID.TID 0000.0001)           No. stops:         300
(PID.TID 0000.0001)   Seconds in section "FORWARD_STEP        [MAIN_DO_LOOP]":
(PID.TID 0000.0001)           User time:   10.850000000000017
(PID.TID 0000.0001)         System time:  1.99999999999999935E-002
(PID.TID 0000.0001)     Wall clock time:   10.894315004348755
(PID.TID 0000.0001)          No. starts:         300
(PID.TID 0000.0001)           No. stops:         300
(PID.TID 0000.0001)   Seconds in section "LOAD_FIELDS_DRIVER  [FORWARD_STEP]":
(PID.TID 0000.0001)           User time:  9.99999999999978684E-003
(PID.TID 0000.0001)         System time:   0.0000000000000000
(PID.TID 0000.0001)     Wall clock time:  8.01944732666015625E-003
(PID.TID 0000.0001)          No. starts:         300
(PID.TID 0000.0001)           No. stops:         300
(PID.TID 0000.0001)   Seconds in section "EXTERNAL_FLDS_LOAD [LOAD_FLDS_DRIVER]":
(PID.TID 0000.0001)           User time:   0.0000000000000000
(PID.TID 0000.0001)         System time:   0.0000000000000000
(PID.TID 0000.0001)     Wall clock time:  2.68602371215820313E-003
(PID.TID 0000.0001)          No. starts:         300
(PID.TID 0000.0001)           No. stops:         300
(PID.TID 0000.0001)   Seconds in section "DO_ATMOSPHERIC_PHYS [FORWARD_STEP]":
(PID.TID 0000.0001)           User time:   0.0000000000000000
(PID.TID 0000.0001)         System time:   0.0000000000000000
(PID.TID 0000.0001)     Wall clock time:  2.67887115478515625E-003
(PID.TID 0000.0001)          No. starts:         300
(PID.TID 0000.0001)           No. stops:         300
(PID.TID 0000.0001)   Seconds in section "DO_OCEANIC_PHYS     [FORWARD_STEP]":
(PID.TID 0000.0001)           User time:  0.97999999999998622
(PID.TID 0000.0001)         System time:  9.99999999999999847E-003
(PID.TID 0000.0001)     Wall clock time:   1.0072855949401855
(PID.TID 0000.0001)          No. starts:         300
(PID.TID 0000.0001)           No. stops:         300
(PID.TID 0000.0001)   Seconds in section "THERMODYNAMICS      [FORWARD_STEP]":
(PID.TID 0000.0001)           User time:   2.4299999999999908
(PID.TID 0000.0001)         System time:   0.0000000000000000
(PID.TID 0000.0001)     Wall clock time:   2.3572828769683838
(PID.TID 0000.0001)          No. starts:         300
(PID.TID 0000.0001)           No. stops:         300
(PID.TID 0000.0001)   Seconds in section "DYNAMICS            [FORWARD_STEP]":
(PID.TID 0000.0001)           User time:   5.0100000000000229
(PID.TID 0000.0001)         System time:   0.0000000000000000
(PID.TID 0000.0001)     Wall clock time:   5.0716378688812256
(PID.TID 0000.0001)          No. starts:         300
(PID.TID 0000.0001)           No. stops:         300
(PID.TID 0000.0001)   Seconds in section "UPDATE_SURF_DR      [FORWARD_STEP]":
(PID.TID 0000.0001)           User time:  2.00000000000013500E-002
(PID.TID 0000.0001)         System time:   0.0000000000000000
(PID.TID 0000.0001)     Wall clock time:  1.68759822845458984E-002
(PID.TID 0000.0001)          No. starts:         300
(PID.TID 0000.0001)           No. stops:         300
(PID.TID 0000.0001)   Seconds in section "UPDATE_CG2D         [FORWARD_STEP]":
(PID.TID 0000.0001)           User time:  8.00000000000000711E-002
(PID.TID 0000.0001)         System time:   0.0000000000000000
(PID.TID 0000.0001)     Wall clock time:  9.45098400115966797E-002
(PID.TID 0000.0001)          No. starts:         300
(PID.TID 0000.0001)           No. stops:         300
(PID.TID 0000.0001)   Seconds in section "SOLVE_FOR_PRESSURE  [FORWARD_STEP]":
(PID.TID 0000.0001)           User time:  0.99999999999998757
(PID.TID 0000.0001)         System time:   0.0000000000000000
(PID.TID 0000.0001)     Wall clock time:  0.95744252204895020
(PID.TID 0000.0001)          No. starts:         300
(PID.TID 0000.0001)           No. stops:         300
(PID.TID 0000.0001)   Seconds in section "MOM_CORRECTION_STEP [FORWARD_STEP]":
(PID.TID 0000.0001)           User time:  0.26000000000000156
(PID.TID 0000.0001)         System time:   0.0000000000000000
(PID.TID 0000.0001)     Wall clock time:  0.32132172584533691
(PID.TID 0000.0001)          No. starts:         300
(PID.TID 0000.0001)           No. stops:         300
(PID.TID 0000.0001)   Seconds in section "INTEGR_CONTINUITY   [FORWARD_STEP]":
(PID.TID 0000.0001)           User time:  0.26000000000000334
(PID.TID 0000.0001)         System time:   0.0000000000000000
(PID.TID 0000.0001)     Wall clock time:  0.23063898086547852
(PID.TID 0000.0001)          No. starts:         300
(PID.TID 0000.0001)           No. stops:         300
(PID.TID 0000.0001)   Seconds in section "CALC_SURF_DR      [FORWARD_STEP]":
(PID.TID 0000.0001)           User time:  2.99999999999993605E-002
(PID.TID 0000.0001)         System time:   0.0000000000000000
(PID.TID 0000.0001)     Wall clock time:  4.05278205871582031E-002
(PID.TID 0000.0001)          No. starts:         300
(PID.TID 0000.0001)           No. stops:         300
(PID.TID 0000.0001)   Seconds in section "TRC_CORRECTION_STEP [FORWARD_STEP]":
(PID.TID 0000.0001)           User time:  6.00000000000004974E-002
(PID.TID 0000.0001)         System time:   0.0000000000000000
(PID.TID 0000.0001)     Wall clock time:  4.93719577789306641E-002
(PID.TID 0000.0001)          No. starts:         300
(PID.TID 0000.0001)           No. stops:         300
(PID.TID 0000.0001)   Seconds in section "BLOCKING_EXCHANGES  [FORWARD_STEP]":
(PID.TID 0000.0001)           User time:  0.59999999999999432
(PID.TID 0000.0001)         System time:  9.99999999999999847E-003
(PID.TID 0000.0001)     Wall clock time:  0.59485244750976563
(PID.TID 0000.0001)          No. starts:         300
(PID.TID 0000.0001)           No. stops:         300
(PID.TID 0000.0001)   Seconds in section "DO_STATEVARS_TAVE   [FORWARD_STEP]":
(PID.TID 0000.0001)           User time:  9.99999999999978684E-003
(PID.TID 0000.0001)         System time:   0.0000000000000000
(PID.TID 0000.0001)     Wall clock time:  2.85053253173828125E-003
(PID.TID 0000.0001)          No. starts:         300
(PID.TID 0000.0001)           No. stops:         300
(PID.TID 0000.0001)   Seconds in section "MONITOR             [FORWARD_STEP]":
(PID.TID 0000.0001)           User time:  4.00000000000009237E-002
(PID.TID 0000.0001)         System time:   0.0000000000000000
(PID.TID 0000.0001)     Wall clock time:  4.60464954376220703E-002
(PID.TID 0000.0001)          No. starts:         300
(PID.TID 0000.0001)           No. stops:         300
(PID.TID 0000.0001)   Seconds in section "DO_THE_MODEL_IO     [FORWARD_STEP]":
(PID.TID 0000.0001)           User time:  3.00000000000011369E-002
(PID.TID 0000.0001)         System time:   0.0000000000000000
(PID.TID 0000.0001)     Wall clock time:  3.86817455291748047E-002
(PID.TID 0000.0001)          No. starts:         300
(PID.TID 0000.0001)           No. stops:         300
(PID.TID 0000.0001)   Seconds in section "DO_WRITE_PICKUP     [FORWARD_STEP]":
(PID.TID 0000.0001)           User time:  9.99999999999978684E-003
(PID.TID 0000.0001)         System time:   0.0000000000000000
(PID.TID 0000.0001)     Wall clock time:  4.08124923706054688E-003
(PID.TID 0000.0001)          No. starts:         300
(PID.TID 0000.0001)           No. stops:         300
(PID.TID 0000.0001) // ======================================================
(PID.TID 0000.0001) // Tile <-> Tile communication statistics
(PID.TID 0000.0001) // ======================================================
(PID.TID 0000.0001) // o Tile number: 000001
(PID.TID 0000.0001) //         No. X exchanges =              0
(PID.TID 0000.0001) //            Max. X spins =              0
(PID.TID 0000.0001) //            Min. X spins =     1000000000
(PID.TID 0000.0001) //          Total. X spins =              0
(PID.TID 0000.0001) //            Avg. X spins =       0.00E+00
(PID.TID 0000.0001) //         No. Y exchanges =              0
(PID.TID 0000.0001) //            Max. Y spins =              0
(PID.TID 0000.0001) //            Min. Y spins =     1000000000
(PID.TID 0000.0001) //          Total. Y spins =              0
(PID.TID 0000.0001) //            Avg. Y spins =       0.00E+00
(PID.TID 0000.0001) // o Tile number: 000002
(PID.TID 0000.0001) //         No. X exchanges =              0
(PID.TID 0000.0001) //            Max. X spins =              0
(PID.TID 0000.0001) //            Min. X spins =     1000000000
(PID.TID 0000.0001) //          Total. X spins =              0
(PID.TID 0000.0001) //            Avg. X spins =       0.00E+00
(PID.TID 0000.0001) //         No. Y exchanges =              0
(PID.TID 0000.0001) //            Max. Y spins =              0
(PID.TID 0000.0001) //            Min. Y spins =     1000000000
(PID.TID 0000.0001) //          Total. Y spins =              0
(PID.TID 0000.0001) //            Avg. Y spins =       0.00E+00
(PID.TID 0000.0001) // o Thread number: 000001
(PID.TID 0000.0001) //            No. barriers =         109962
(PID.TID 0000.0001) //      Max. barrier spins =              1
(PID.TID 0000.0001) //      Min. barrier spins =              1
(PID.TID 0000.0001) //     Total barrier spins =         109962
(PID.TID 0000.0001) //      Avg. barrier spins =       1.00E+00
PROGRAM MAIN: Execution ended Normally
