(PID.TID 0000.0001) 
(PID.TID 0000.0001) // ======================================================
(PID.TID 0000.0001) //                      MITgcm UV
(PID.TID 0000.0001) //                      =========
(PID.TID 0000.0001) // ======================================================
(PID.TID 0000.0001) // execution environment starting up...
(PID.TID 0000.0001) // Run starting Wed Apr  1 14:19:48 1998
(PID.TID 0000.0001) // on melville.lcs.mit.edu
(PID.TID 0000.0001) // account cnh
(PID.TID 0000.0001) // MITgcm UV Release: $Name:  $
(PID.TID 0000.0001) 
(PID.TID 0000.0001) // =======================================================
(PID.TID 0000.0001) // Execution Environment parameter file "eedata"
(PID.TID 0000.0001) // =======================================================
(PID.TID 0000.0001) ># Example "eedata" file
(PID.TID 0000.0001) ># Lines beginning "#" are comments
(PID.TID 0000.0001) ># nTx - No. threads per process in X
(PID.TID 0000.0001) ># nTy - No. threads per process in Y
(PID.TID 0000.0001) > &EEPARMS
(PID.TID 0000.0001) > &
(PID.TID 0000.0001) ># Note: Some systems use & as the
(PID.TID 0000.0001) ># namelist terminator. Other systems
(PID.TID 0000.0001) ># use a / character (as shown here).
(PID.TID 0000.0001) 
(PID.TID 0000.0001) // =======================================================
(PID.TID 0000.0001) // Computational Grid Specification ( see files "SIZE.h" )
(PID.TID 0000.0001) //                                  ( and "eedata"       )
(PID.TID 0000.0001) // =======================================================
(PID.TID 0000.0001)      nPx =    1 ; /* No. processes in X */
(PID.TID 0000.0001)      nPy =    1 ; /* No. processes in Y */
(PID.TID 0000.0001)      nSx =    2 ; /* No. tiles in X per process */
(PID.TID 0000.0001)      nSy =    1 ; /* No. tiles in Y per process */
(PID.TID 0000.0001)      sNx =   64 ; /* Tile size in X */
(PID.TID 0000.0001)      sNy =   23 ; /* Tile size in Y */
(PID.TID 0000.0001)      OLx =    2 ; /* Tile overlap distance in X */
(PID.TID 0000.0001)      OLy =    2 ; /* Tile overlap distance in Y */
(PID.TID 0000.0001)      nTx =    1 ; /* No. threads in X per process */
(PID.TID 0000.0001)      nTy =    1 ; /* No. threads in Y per process */
(PID.TID 0000.0001)       Nr =    5 ; /* No. levels in the vertical   */
(PID.TID 0000.0001)       nX =  128 ; /* Total domain size in X ( = nPx*nSx*sNx ) */
(PID.TID 0000.0001)       nY =   23 ; /* Total domain size in Y ( = nPy*nSy*sNy ) */
(PID.TID 0000.0001)   nTiles =    2 ; /* Total no. tiles per process ( = nSx*nSy ) */
(PID.TID 0000.0001)   nProcs =    1 ; /* Total no. processes ( = nPx*nPy ) */
(PID.TID 0000.0001) nThreads =    1 ; /* Total no. threads per process ( = nTx*nTy ) */
(PID.TID 0000.0001) usingMPI =    F ; /* Flag used to control whether MPI is in use */
(PID.TID 0000.0001)                   /*  note: To execute a program with MPI calls */
(PID.TID 0000.0001)                   /*  it must be launched appropriately e.g     */
(PID.TID 0000.0001)                   /*  "mpirun -np 64 ......"                    */
(PID.TID 0000.0001) useCoupler=   F ; /* Flag used to control communications with */
(PID.TID 0000.0001)                   /*  other model components, through a coupler */
(PID.TID 0000.0001) 
(PID.TID 0000.0001) // ======================================================
(PID.TID 0000.0001) // Mapping of tiles to threads
(PID.TID 0000.0001) // ======================================================
(PID.TID 0000.0001) // -o- Thread   1, tiles (   1:   2,   1:   1)
(PID.TID 0000.0001) 
(PID.TID 0000.0001) // ======================================================
(PID.TID 0000.0001) // Tile <-> Tile connectvity table
(PID.TID 0000.0001) // ======================================================
(PID.TID 0000.0001) // Tile number: 000001 (process no. = 000001)
(PID.TID 0000.0001) //        WEST: Tile = 000002, Process = 000001, Comm = put
(PID.TID 0000.0001) //                bi = 000002, bj = 000001
(PID.TID 0000.0001) //        EAST: Tile = 000002, Process = 000001, Comm = put
(PID.TID 0000.0001) //                bi = 000002, bj = 000001
(PID.TID 0000.0001) //       SOUTH: Tile = 000001, Process = 000001, Comm = put
(PID.TID 0000.0001) //                bi = 000001, bj = 000001
(PID.TID 0000.0001) //       NORTH: Tile = 000001, Process = 000001, Comm = put
(PID.TID 0000.0001) //                bi = 000001, bj = 000001
(PID.TID 0000.0001) // Tile number: 000002 (process no. = 000001)
(PID.TID 0000.0001) //        WEST: Tile = 000001, Process = 000001, Comm = put
(PID.TID 0000.0001) //                bi = 000001, bj = 000001
(PID.TID 0000.0001) //        EAST: Tile = 000001, Process = 000001, Comm = put
(PID.TID 0000.0001) //                bi = 000001, bj = 000001
(PID.TID 0000.0001) //       SOUTH: Tile = 000002, Process = 000001, Comm = put
(PID.TID 0000.0001) //                bi = 000002, bj = 000001
(PID.TID 0000.0001) //       NORTH: Tile = 000002, Process = 000001, Comm = put
(PID.TID 0000.0001) //                bi = 000002, bj = 000001
(PID.TID 0000.0001) 
(PID.TID 0000.0001) // =======================================================
(PID.TID 0000.0001) // Model parameter file "data"
(PID.TID 0000.0001) // =======================================================
(PID.TID 0000.0001) ># ====================
(PID.TID 0000.0001) ># | Model parameters |
(PID.TID 0000.0001) ># ====================
(PID.TID 0000.0001) >#
(PID.TID 0000.0001) ># Continuous equation parameters
(PID.TID 0000.0001) > &PARM01
(PID.TID 0000.0001) > tRef=289.6, 298.1, 314.5, 335.8, 437.4,
(PID.TID 0000.0001) > sRef=5*0.,
(PID.TID 0000.0001) >#viscAr=1.E3,
(PID.TID 0000.0001) > no_slip_sides=.FALSE.,
(PID.TID 0000.0001) > no_slip_bottom=.FALSE.,
(PID.TID 0000.0001) > buoyancyRelation='ATMOSPHERIC',
(PID.TID 0000.0001) > eosType='IDEALGAS',
(PID.TID 0000.0001) >#atm_Rq=0.6078E-3,
(PID.TID 0000.0001) > gravity=9.81,
(PID.TID 0000.0001) > rhonil=1.0,
(PID.TID 0000.0001) > rhoConst=1.0,
(PID.TID 0000.0001) > rhoConstFresh=1000.,
(PID.TID 0000.0001) > implicitFreeSurface=.TRUE.,
(PID.TID 0000.0001) > exactConserv=.TRUE.,
(PID.TID 0000.0001) >#uniformLin_PhiSurf=.FALSE.,
(PID.TID 0000.0001) > staggerTimeStep=.TRUE.,
(PID.TID 0000.0001) > readBinaryPrec=64,
(PID.TID 0000.0001) > writeBinaryPrec=64,
(PID.TID 0000.0001) > saltAdvScheme=3,
(PID.TID 0000.0001) > &
(PID.TID 0000.0001) >
(PID.TID 0000.0001) ># Elliptic solver parameters
(PID.TID 0000.0001) > &PARM02
(PID.TID 0000.0001) > cg2dMaxIters=200,
(PID.TID 0000.0001) >#cg2dTargetResidual=1.E-12,
(PID.TID 0000.0001) > cg2dTargetResWunit=1.E-17,
(PID.TID 0000.0001) > &
(PID.TID 0000.0001) >
(PID.TID 0000.0001) ># Time stepping parameters
(PID.TID 0000.0001) > &PARM03
(PID.TID 0000.0001) > nIter0=51840,
(PID.TID 0000.0001) > nTimeSteps=10,
(PID.TID 0000.0001) >#endTime=155520000.,
(PID.TID 0000.0001) > deltaT=600.,
(PID.TID 0000.0001) > abEps=0.1,
(PID.TID 0000.0001) > pChkptFreq=2592000.,
(PID.TID 0000.0001) > forcing_In_AB=.FALSE.,
(PID.TID 0000.0001) > chkptFreq=0.,
(PID.TID 0000.0001) > dumpFreq=2592000.,
(PID.TID 0000.0001) > taveFreq=2592000.,
(PID.TID 0000.0001) >#monitorFreq=86400.,
(PID.TID 0000.0001) > monitorFreq=1.,
(PID.TID 0000.0001) > &
(PID.TID 0000.0001) >
(PID.TID 0000.0001) ># Gridding parameters
(PID.TID 0000.0001) > &PARM04
(PID.TID 0000.0001) > usingSphericalPolarGrid=.TRUE.,
(PID.TID 0000.0001) > delX=128*2.8125,
(PID.TID 0000.0001) > delY=23*2.8125,
(PID.TID 0000.0001) > delR=100.E2, 250.E2, 300.E2, 200.E2, 150.E2,
(PID.TID 0000.0001) > Ro_SeaLevel=1.E5,
(PID.TID 0000.0001) > groundAtK1=.TRUE.,
(PID.TID 0000.0001) > phiMin=-32.34375,
(PID.TID 0000.0001) > rSphere=6370.E3,
(PID.TID 0000.0001) > &
(PID.TID 0000.0001) >
(PID.TID 0000.0001) ># Input datasets
(PID.TID 0000.0001) > &PARM05
(PID.TID 0000.0001) > &
(PID.TID 0000.0001) 
(PID.TID 0000.0001) S/R INI_PARMS ; read PARM01 : OK
(PID.TID 0000.0001) S/R INI_PARMS ; read PARM02 : OK
(PID.TID 0000.0001) S/R INI_PARMS ; read PARM03 : OK
(PID.TID 0000.0001) S/R INI_PARMS ; read PARM04 : OK
(PID.TID 0000.0001) S/R INI_PARMS ; read PARM05 : OK
(PID.TID 0000.0001) %MON XC_max                       =   3.5859375000000E+02
(PID.TID 0000.0001) %MON XC_min                       =   1.4062500000000E+00
(PID.TID 0000.0001) %MON XC_mean                      =   1.8000000000000E+02
(PID.TID 0000.0001) %MON XC_sd                        =   1.0391987692599E+02
(PID.TID 0000.0001) %MON XG_max                       =   3.5718750000000E+02
(PID.TID 0000.0001) %MON XG_min                       =   2.8125000000000E+00
(PID.TID 0000.0001) %MON XG_mean                      =   1.8000000000000E+02
(PID.TID 0000.0001) %MON XG_sd                        =   1.0310795313651E+02
(PID.TID 0000.0001) %MON DXC_max                      =   3.1268664380261E+05
(PID.TID 0000.0001) %MON DXC_min                      =   2.6820028035446E+05
(PID.TID 0000.0001) %MON DXC_mean                     =   2.9637191437595E+05
(PID.TID 0000.0001) %MON DXC_sd                       =   1.4453062273565E+04
(PID.TID 0000.0001) %MON DXF_max                      =   3.1268664380261E+05
(PID.TID 0000.0001) %MON DXF_min                      =   2.6820028035446E+05
(PID.TID 0000.0001) %MON DXF_mean                     =   2.9637191437595E+05
(PID.TID 0000.0001) %MON DXF_sd                       =   1.4453062273565E+04
(PID.TID 0000.0001) %MON DXG_max                      =   3.1259246843155E+05
(PID.TID 0000.0001) %MON DXG_min                      =   2.6417442582260E+05
(PID.TID 0000.0001) %MON DXG_mean                     =   2.9628265269637E+05
(PID.TID 0000.0001) %MON DXG_sd                       =   1.4650049182775E+04
(PID.TID 0000.0001) %MON DXV_max                      =   3.1259246843155E+05
(PID.TID 0000.0001) %MON DXV_min                      =   2.6417442582260E+05
(PID.TID 0000.0001) %MON DXV_mean                     =   2.9628265269637E+05
(PID.TID 0000.0001) %MON DXV_sd                       =   1.4650049182775E+04
(PID.TID 0000.0001) %MON YC_max                       =   3.0937500000000E+01
(PID.TID 0000.0001) %MON YC_min                       =  -3.0937500000000E+01
(PID.TID 0000.0001) %MON YC_mean                      =   0.0000000000000E+00
(PID.TID 0000.0001) %MON YC_sd                        =   1.9075303077540E+01
(PID.TID 0000.0001) %MON YG_max                       =   2.9531250000000E+01
(PID.TID 0000.0001) %MON YG_min                       =  -3.2343750000000E+01
(PID.TID 0000.0001) %MON YG_mean                      =  -1.4062500000000E+00
(PID.TID 0000.0001) %MON YG_sd                        =   1.8656014445749E+01
(PID.TID 0000.0001) %MON DYC_max                      =   3.1268664380261E+05
(PID.TID 0000.0001) %MON DYC_min                      =   3.1268664380261E+05
(PID.TID 0000.0001) %MON DYC_mean                     =   3.1268664380262E+05
(PID.TID 0000.0001) %MON DYC_sd                       =   7.2177499532700E-09
(PID.TID 0000.0001) %MON DYF_max                      =   3.1268664380261E+05
(PID.TID 0000.0001) %MON DYF_min                      =   3.1268664380261E+05
(PID.TID 0000.0001) %MON DYF_mean                     =   3.1268664380262E+05
(PID.TID 0000.0001) %MON DYF_sd                       =   7.2177499532700E-09
(PID.TID 0000.0001) %MON DYG_max                      =   3.1268664380261E+05
(PID.TID 0000.0001) %MON DYG_min                      =   3.1268664380261E+05
(PID.TID 0000.0001) %MON DYG_mean                     =   3.1268664380262E+05
(PID.TID 0000.0001) %MON DYG_sd                       =   7.2177499532700E-09
(PID.TID 0000.0001) %MON DYU_max                      =   3.1268664380261E+05
(PID.TID 0000.0001) %MON DYU_min                      =   3.1268664380261E+05
(PID.TID 0000.0001) %MON DYU_mean                     =   3.1268664380262E+05
(PID.TID 0000.0001) %MON DYU_sd                       =   7.2177499532700E-09
(PID.TID 0000.0001) %MON RA_max                       =   9.7763121221868E+10
(PID.TID 0000.0001) %MON RA_min                       =   8.3854226074921E+10
(PID.TID 0000.0001) %MON RA_mean                      =   9.2662235391747E+10
(PID.TID 0000.0001) %MON RA_sd                        =   4.5188258183799E+09
(PID.TID 0000.0001) %MON RAW_max                      =   9.7763121221868E+10
(PID.TID 0000.0001) %MON RAW_min                      =   8.3854226074921E+10
(PID.TID 0000.0001) %MON RAW_mean                     =   9.2662235391747E+10
(PID.TID 0000.0001) %MON RAW_sd                       =   4.5188258183799E+09
(PID.TID 0000.0001) %MON RAS_max                      =   9.7733676797555E+10
(PID.TID 0000.0001) %MON RAS_min                      =   8.2595521514234E+10
(PID.TID 0000.0001) %MON RAS_mean                     =   9.2634327258881E+10
(PID.TID 0000.0001) %MON RAS_sd                       =   4.5804148099979E+09
(PID.TID 0000.0001) %MON RAZ_max                      =   9.7733676797555E+10
(PID.TID 0000.0001) %MON RAZ_min                      =   8.2595521514234E+10
(PID.TID 0000.0001) %MON RAZ_mean                     =   9.2634327258881E+10
(PID.TID 0000.0001) %MON RAZ_sd                       =   4.5804148099979E+09
(PID.TID 0000.0001) // =======================================================
(PID.TID 0000.0001) // Field Model R_low (ini_masks_etc) at iteration          1
(PID.TID 0000.0001) // CMIN =          1.000000000000000E+32
(PID.TID 0000.0001) // CMAX =         -1.000000000000000E+32
(PID.TID 0000.0001) // CINT =          0.000000000000000E+00
(PID.TID 0000.0001) // SYMBOLS (CMIN->CMAX): -abcdefghijklmnopqrstuvwxyz+
(PID.TID 0000.0001) //                  0.0: .
(PID.TID 0000.0001) // RANGE I (Lo:Hi:Step):(  -1: 130:   1)
(PID.TID 0000.0001) // RANGE J (Lo:Hi:Step):(  25:  -1:  -1)
(PID.TID 0000.0001) // RANGE K (Lo:Hi:Step):(   1:   1:   1)
(PID.TID 0000.0001) // =======================================================
(PID.TID 0000.0001) // =======================================================
(PID.TID 0000.0001) // END OF FIELD                                          =
(PID.TID 0000.0001) // =======================================================
(PID.TID 0000.0001) 
(PID.TID 0000.0001) // =======================================================
(PID.TID 0000.0001) // Field Model Ro_surf (ini_masks_etc) at iteration          1
(PID.TID 0000.0001) // CMIN =          1.000000000000000E+05
(PID.TID 0000.0001) // CMAX =          1.000000000000000E+05
(PID.TID 0000.0001) // CINT =          0.000000000000000E+00
(PID.TID 0000.0001) // SYMBOLS (CMIN->CMAX): -abcdefghijklmnopqrstuvwxyz+
(PID.TID 0000.0001) //                  0.0: .
(PID.TID 0000.0001) // RANGE I (Lo:Hi:Step):(  -1: 130:   1)
(PID.TID 0000.0001) // RANGE J (Lo:Hi:Step):(  25:  -1:  -1)
(PID.TID 0000.0001) // RANGE K (Lo:Hi:Step):(   1:   1:   1)
(PID.TID 0000.0001) // =======================================================
(PID.TID 0000.0001) // =======================================================
(PID.TID 0000.0001) // END OF FIELD                                          =
(PID.TID 0000.0001) // =======================================================
(PID.TID 0000.0001) 
(PID.TID 0000.0001) // =======================================================
(PID.TID 0000.0001) // Field hFacC at iteration          1
(PID.TID 0000.0001) // CMIN =          1.000000000000000E+00
(PID.TID 0000.0001) // CMAX =          1.000000000000000E+00
(PID.TID 0000.0001) // CINT =          0.000000000000000E+00
(PID.TID 0000.0001) // SYMBOLS (CMIN->CMAX): -abcdefghijklmnopqrstuvwxyz+
(PID.TID 0000.0001) //                  0.0: .
(PID.TID 0000.0001) // RANGE I (Lo:Hi:Step):(  -1: 130:   1)
(PID.TID 0000.0001) // RANGE J (Lo:Hi:Step):(  25:  -1:  -1)
(PID.TID 0000.0001) // RANGE K (Lo:Hi:Step):(   1:   1:   1)
(PID.TID 0000.0001) // =======================================================
(PID.TID 0000.0001) // =======================================================
(PID.TID 0000.0001) // END OF FIELD                                          =
(PID.TID 0000.0001) // =======================================================
(PID.TID 0000.0001) 
(PID.TID 0000.0001) // =======================================================
(PID.TID 0000.0001) // Field hFacW at iteration          1
(PID.TID 0000.0001) // CMIN =          1.000000000000000E+00
(PID.TID 0000.0001) // CMAX =          1.000000000000000E+00
(PID.TID 0000.0001) // CINT =          0.000000000000000E+00
(PID.TID 0000.0001) // SYMBOLS (CMIN->CMAX): -abcdefghijklmnopqrstuvwxyz+
(PID.TID 0000.0001) //                  0.0: .
(PID.TID 0000.0001) // RANGE I (Lo:Hi:Step):(  -1: 130:   1)
(PID.TID 0000.0001) // RANGE J (Lo:Hi:Step):(  25:  -1:  -1)
(PID.TID 0000.0001) // RANGE K (Lo:Hi:Step):(   1:   1:   1)
(PID.TID 0000.0001) // =======================================================
(PID.TID 0000.0001) // =======================================================
(PID.TID 0000.0001) // END OF FIELD                                          =
(PID.TID 0000.0001) // =======================================================
(PID.TID 0000.0001) 
(PID.TID 0000.0001) // =======================================================
(PID.TID 0000.0001) // Field hFacS at iteration          1
(PID.TID 0000.0001) // CMIN =          1.000000000000000E+00
(PID.TID 0000.0001) // CMAX =          1.000000000000000E+00
(PID.TID 0000.0001) // CINT =          0.000000000000000E+00
(PID.TID 0000.0001) // SYMBOLS (CMIN->CMAX): -abcdefghijklmnopqrstuvwxyz+
(PID.TID 0000.0001) //                  0.0: .
(PID.TID 0000.0001) // RANGE I (Lo:Hi:Step):(  -1: 130:   1)
(PID.TID 0000.0001) // RANGE J (Lo:Hi:Step):(  25:  -1:  -1)
(PID.TID 0000.0001) // RANGE K (Lo:Hi:Step):(   1:   1:   1)
(PID.TID 0000.0001) // =======================================================
(PID.TID 0000.0001) // =======================================================
(PID.TID 0000.0001) // END OF FIELD                                          =
(PID.TID 0000.0001) // =======================================================
(PID.TID 0000.0001) 
(PID.TID 0000.0001)  PACKAGES_BOOT: opening data.pkg
(PID.TID 0000.0001)  OPEN_COPY_DATA_FILE: opening file data.pkg
(PID.TID 0000.0001) // =======================================================
(PID.TID 0000.0001) // Parameter file "data.pkg"
(PID.TID 0000.0001) // =======================================================
(PID.TID 0000.0001) ># Packages
(PID.TID 0000.0001) > &PACKAGES
(PID.TID 0000.0001) > useAIM=.TRUE.,
(PID.TID 0000.0001) > useSHAP_FILT=.TRUE.,
(PID.TID 0000.0001) > &
(PID.TID 0000.0001) 
(PID.TID 0000.0001)  PACKAGES_BOOT: finished reading data.pkg
(PID.TID 0000.0001)  SHAP_FILT_READPARMS: opening data.shap
(PID.TID 0000.0001)  OPEN_COPY_DATA_FILE: opening file data.shap
(PID.TID 0000.0001) // =======================================================
(PID.TID 0000.0001) // Parameter file "data.shap"
(PID.TID 0000.0001) // =======================================================
(PID.TID 0000.0001) ># Shapiro Filter parameters
(PID.TID 0000.0001) > &SHAP_PARM01
(PID.TID 0000.0001) > shap_filt_uvStar=.FALSE.,
(PID.TID 0000.0001) > shap_filt_TrStagg=.TRUE.,
(PID.TID 0000.0001) > Shap_funct=2,
(PID.TID 0000.0001) > nShapT=4,
(PID.TID 0000.0001) > nShapUV=4,
(PID.TID 0000.0001) > nShapTrPhys=0,
(PID.TID 0000.0001) > nShapUVPhys=0,
(PID.TID 0000.0001) > Shap_Trtau=5400.,
(PID.TID 0000.0001) > Shap_uvtau=1800.,
(PID.TID 0000.0001) > Shap_noSlip=1.,
(PID.TID 0000.0001) >#Shap_diagFreq=2592000.,
(PID.TID 0000.0001) > &
(PID.TID 0000.0001) >
(PID.TID 0000.0001) 
(PID.TID 0000.0001)  SHAP_FILT_READPARMS: finished reading data.shap
(PID.TID 0000.0001) Shap_funct =   /* select Shapiro filter function */
(PID.TID 0000.0001)                       2
(PID.TID 0000.0001)     ;
(PID.TID 0000.0001) nShapTr =   /* power of Shapiro filter for Tracers */
(PID.TID 0000.0001)                       4
(PID.TID 0000.0001)     ;
(PID.TID 0000.0001) nShapUV =   /* power of Shapiro filter for momentum */
(PID.TID 0000.0001)                       4
(PID.TID 0000.0001)     ;
(PID.TID 0000.0001) nShapTrPhys =   /* power of physical-space filter (Tracer) */
(PID.TID 0000.0001)                       0
(PID.TID 0000.0001)     ;
(PID.TID 0000.0001) nShapUVPhys =   /* power of physical-space filter (Momentum) */
(PID.TID 0000.0001)                       0
(PID.TID 0000.0001)     ;
(PID.TID 0000.0001) Shap_Trtau =   /* time scale of Shapiro filter (Tracer) */
(PID.TID 0000.0001)                 5.400000000000000E+03
(PID.TID 0000.0001)     ;
(PID.TID 0000.0001) Shap_TrLength =   /* Length scale of Shapiro filter (Tracer) */
(PID.TID 0000.0001)                 0.000000000000000E+00
(PID.TID 0000.0001)     ;
(PID.TID 0000.0001) Shap_uvtau =   /* time scale of Shapiro filter (Momentum) */
(PID.TID 0000.0001)                 1.800000000000000E+03
(PID.TID 0000.0001)     ;
(PID.TID 0000.0001) Shap_uvLength =   /* Length scale of Shapiro filter (Momentum) */
(PID.TID 0000.0001)                 0.000000000000000E+00
(PID.TID 0000.0001)     ;
(PID.TID 0000.0001) Shap_noSlip =  /* No-slip parameter (0=Free-slip ; 1=No-slip)*/
(PID.TID 0000.0001)                 1.000000000000000E+00
(PID.TID 0000.0001)     ;
(PID.TID 0000.0001) Shap_diagFreq =   /* Frequency^-1 for diagnostic output (s)*/
(PID.TID 0000.0001)                 0.000000000000000E+00
(PID.TID 0000.0001)     ;
(PID.TID 0000.0001) 
(PID.TID 0000.0001) // ===================================
(PID.TID 0000.0001) // GAD parameters :
(PID.TID 0000.0001) // ===================================
(PID.TID 0000.0001) tempAdvScheme =   /* Temp. advection scheme selector */
(PID.TID 0000.0001)                       2
(PID.TID 0000.0001)     ;
(PID.TID 0000.0001) tempMultiDimAdvec =   /* use Muti-Dim Advec method for Temp */
(PID.TID 0000.0001)                   F
(PID.TID 0000.0001)     ;
(PID.TID 0000.0001) tempAdamsBashforth =   /* use Adams-Bashforth time-stepping for Temp */
(PID.TID 0000.0001)                   T
(PID.TID 0000.0001)     ;
(PID.TID 0000.0001) saltAdvScheme =   /* Salt. advection scheme selector */
(PID.TID 0000.0001)                       3
(PID.TID 0000.0001)     ;
(PID.TID 0000.0001) saltMultiDimAdvec =   /* use Muti-Dim Advec method for Salt */
(PID.TID 0000.0001)                   F
(PID.TID 0000.0001)     ;
(PID.TID 0000.0001) saltAdamsBashforth =   /* use Adams-Bashforth time-stepping for Salt */
(PID.TID 0000.0001)                   T
(PID.TID 0000.0001)     ;
(PID.TID 0000.0001) // ===================================
- INPHYS: k,SIG, SIGH,   SIGL,   WVI(1),  WVI(2):
  1   0.0750   0.1500  -2.5903   0.8306   0.5757
  2   0.2500   0.3500  -1.3863   1.4427   0.4854
  3   0.5000   0.6500  -0.6931   2.2818   0.5987
  4   0.7750   0.9000  -0.2549   4.9116   0.7344
  5   0.9500   1.0000  -0.0513   0.0000   0.0377
- INPHYS: end setup WVI.
(PID.TID 0000.0001)  AIM_READ_PHYSPARMS: opening data.aimphys
(PID.TID 0000.0001)  OPEN_COPY_DATA_FILE: opening file data.aimphys
(PID.TID 0000.0001) // =======================================================
(PID.TID 0000.0001) // Parameter file "data.aimphys"
(PID.TID 0000.0001) // =======================================================
(PID.TID 0000.0001) ># AIM physics package parameters:
(PID.TID 0000.0001) >
(PID.TID 0000.0001) >C--   AIM interface parameter (namelist AIM_PARAMS):
(PID.TID 0000.0001) >#     aim_useFMsurfBC :: select surface B.C. from Franco Molteni
(PID.TID 0000.0001) >#     aim_useMMsurfFc :: select Monthly Mean surface forcing (e.g., NCEP)
(PID.TID 0000.0001) >#     aim_surfPotTemp :: surf.Temp input file is in Pot.Temp (aim_useMMsurfFc)
(PID.TID 0000.0001) >#     aim_MMsufx   :: sufix for all Monthly Mean surface forcing files
(PID.TID 0000.0001) >#     aim_MMsufxLength :: Length of sufix (Monthly Mean surf. forc. files)
(PID.TID 0000.0001) >#     aim_LandFile :: file name for Land fraction       (F.M. surfBC)
(PID.TID 0000.0001) >#     aim_albFile  :: file name for Albedo input file   (F.M. surfBC)
(PID.TID 0000.0001) >#     aim_vegFile  :: file name for vegetation fraction (F.M. surfBC)
(PID.TID 0000.0001) >#     aim_sstFile  :: file name for  Sea.Surf.Temp      (F.M. surfBC)
(PID.TID 0000.0001) >#     aim_lstFile  :: file name for Land.Surf.Temp      (F.M. surfBC)
(PID.TID 0000.0001) >#     aim_oiceFile :: file name for Sea Ice fraction    (F.M. surfBC)
(PID.TID 0000.0001) >#     aim_snowFile :: file name for Snow depth          (F.M. surfBC)
(PID.TID 0000.0001) >#     aim_swcFile  :: file name for Soil Water content  (F.M. surfBC)
(PID.TID 0000.0001) >#     aim_dragStrato :: stratospheric-drag damping time scale (s)
(PID.TID 0000.0001) >#     aim_diagFreq :: Frequency^-1 for diagnostic output (s)
(PID.TID 0000.0001) >#     aim_tendFreq :: Frequency^-1 for tendencies output (s)
(PID.TID 0000.0001) > &AIM_PARAMS
(PID.TID 0000.0001) >   aim_useFMsurfBC=.FALSE.,
(PID.TID 0000.0001) >   aim_useMMsurfFc=.FALSE.,
(PID.TID 0000.0001) >#  aim_dragStrato= 2592000.,
(PID.TID 0000.0001) > &
(PID.TID 0000.0001) >
(PID.TID 0000.0001) >#--   Physical constants
(PID.TID 0000.0001) >#      P0   = reference pressure
(PID.TID 0000.0001) >#      GG   = gravity accel.
(PID.TID 0000.0001) >#      RD   = gas constant for dry air
(PID.TID 0000.0001) >#      CP   = specific heat at constant pressure
(PID.TID 0000.0001) >#      ALHC = latent heat of condensation
(PID.TID 0000.0001) >#      SBC  = Stefan-Boltzmann constant
(PID.TID 0000.0001) >
(PID.TID 0000.0001) >#--   Constants for forcing fields (namelist AIM_PAR_FOR):
(PID.TID 0000.0001) >#      SOLC   = Solar constant (area averaged) in W/m^2
(PID.TID 0000.0001) >#      ALBSEA = Albedo over sea
(PID.TID 0000.0001) >#      ALBICE = Albedo over sea ice (for ice fraction = 1)
(PID.TID 0000.0001) >#      ALBSN  = Albedo over snow (for snow depth > SDALB)
(PID.TID 0000.0001) >#      SDALB  = Snow depth (mm water) corresponding to maximum albedo
(PID.TID 0000.0001) >#      SWCAP  = Soil wetness at field capacity (volume fraction)
(PID.TID 0000.0001) >#      SWWIL  = Soil wetness at wilting point  (volume fraction)
(PID.TID 0000.0001) > &AIM_PAR_FOR
(PID.TID 0000.0001) > &
(PID.TID 0000.0001) >
(PID.TID 0000.0001) >#--   Constants for surface fluxes (namelist AIM_PAR_SFL):
(PID.TID 0000.0001) >#      FWIND0 = ratio of near-sfc wind to lowest-level wind
(PID.TID 0000.0001) >#      FTEMP0 = weight for near-sfc temperature extrapolation (0-1) :
(PID.TID 0000.0001) >#               1 : linear extrapolation from two lowest levels
(PID.TID 0000.0001) >#               0 : constant potential temperature ( = lowest level)
(PID.TID 0000.0001) >#      FHUM0  = weight for near-sfc specific humidity extrapolation (0-1) :
(PID.TID 0000.0001) >#               1 : extrap. with constant relative hum. ( = lowest level)
(PID.TID 0000.0001) >#               0 : constant specific hum. ( = lowest level)
(PID.TID 0000.0001) >#      CDL    = drag coefficient for momentum over land
(PID.TID 0000.0001) >#      CDS    = drag coefficient for momentum over sea
(PID.TID 0000.0001) >#      CHL    = heat exchange coefficient over land
(PID.TID 0000.0001) >#      CHS    = heat exchange coefficient over sea
(PID.TID 0000.0001) >#      VGUST  = wind speed for sub-grid-scale gusts
(PID.TID 0000.0001) >#      CTDAY  = daily-cycle correction (dTskin/dSSRad)
(PID.TID 0000.0001) >#      DTHETA = Potential temp. gradient for stability correction
(PID.TID 0000.0001) >#      FSTAB  = Amplitude of stability correction (fraction)
(PID.TID 0000.0001) >#      HDRAG  = Height scale for orographic correction
(PID.TID 0000.0001) >#      FHDRAG = Amplitude of orographic correction (fraction)
(PID.TID 0000.0001) > &AIM_PAR_SFL
(PID.TID 0000.0001) > &
(PID.TID 0000.0001) >
(PID.TID 0000.0001) >#--   Convection constants (namelist AIM_PAR_CNV):
(PID.TID 0000.0001) >#      PSMIN  = minimum (norm.) sfc. pressure for the occurrence of convection
(PID.TID 0000.0001) >#      TRCNV  = time of relaxation (in hours) towards reference state
(PID.TID 0000.0001) >#      QBL    = specific hum. threshold in the boundary layer
(PID.TID 0000.0001) >#      RHBL   = relative hum. threshold in the boundary layer
(PID.TID 0000.0001) >#      RHIL   = rel. hum. threshold in intermed. layers for secondary mass flux
(PID.TID 0000.0001) >#      ENTMAX = max. entrainment as a fraction of cloud-base mass flux
(PID.TID 0000.0001) >#      SMF    = ratio between secondary and primary mass flux at cloud-base
(PID.TID 0000.0001) > &AIM_PAR_CNV
(PID.TID 0000.0001) > &
(PID.TID 0000.0001) >
(PID.TID 0000.0001) >#--   Constants for large-scale condendation (namelist AIM_PAR_LSC):
(PID.TID 0000.0001) >#      TRLSC  = Relaxation time (in hours) for specific humidity
(PID.TID 0000.0001) >#      RHLSC  = Maximum relative humidity threshold (at sigma=1)
(PID.TID 0000.0001) >#      DRHLSC = Vertical range of relative humidity threshold
(PID.TID 0000.0001) >#      QSMAX  = used to define the maximum latent heat release
(PID.TID 0000.0001) > &AIM_PAR_LSC
(PID.TID 0000.0001) > &
(PID.TID 0000.0001) >
(PID.TID 0000.0001) >#--   Radiation constants (namelist AIM_PAR_RAD):
(PID.TID 0000.0001) >#      RHCL1  = relative hum. corresponding to cloud cover = 0
(PID.TID 0000.0001) >#      RHCL2  = relative hum. corresponding to cloud cover = 1
(PID.TID 0000.0001) >#      QACL1  = specific hum. threshold for cloud cover in the upper troposphere
(PID.TID 0000.0001) >#      QACL2  = specific hum. threshold for cloud cover in the upper troposphere
(PID.TID 0000.0001) >#      ALBCL  = cloud albedo (for cloud cover = 1)
(PID.TID 0000.0001) >#      EPSSW  = fraction of incoming solar radiation absorbed by ozone
(PID.TID 0000.0001) >#      EPSLW  = fraction of surface LW radiation emitted directly to space
(PID.TID 0000.0001) >#      EMISFC = longwave surface emissivity
(PID.TID 0000.0001) >#--:            shortwave absorptivities (for dp = 10^5 Pa) :
(PID.TID 0000.0001) >#      ABSDRY = abs. of dry air      (visible band)
(PID.TID 0000.0001) >#      ABSAER = abs. of aerosols     (visible band)
(PID.TID 0000.0001) >#      ABSWV1 = abs. of water vapour (visible band, for dq = 1 g/kg)
(PID.TID 0000.0001) >#      ABSWV2 = abs. of water vapour (near IR band, for dq = 1 g/kg)
(PID.TID 0000.0001) >#      ABSCL1 = abs. of clouds       (visible band, constant term)
(PID.TID 0000.0001) >#      ABSCL2 = abs. of clouds       (visible band, for dw = 1 g/kg)
(PID.TID 0000.0001) >#--:            longwave absorptivities (per dp = 10^5 Pa) :
(PID.TID 0000.0001) >#      ABLWIN = abs. of air in "window" band
(PID.TID 0000.0001) >#      ABLCO2 = abs. of air in CO2 band
(PID.TID 0000.0001) >#      ABLWV1 = abs. of water vapour in H2O band 1 (weak),   for dq = 1 g/kg
(PID.TID 0000.0001) >#      ABLWV2 = abs. of water vapour in H2O band 2 (strong), for dq = 1 g/kg
(PID.TID 0000.0001) >#      ABLCL1 = abs. of clouds       in "window" band,       constant term
(PID.TID 0000.0001) >#      ABLCL2 = abs. of clouds       in "window" band,       for dw = 1 g/kg
(PID.TID 0000.0001) > &AIM_PAR_RAD
(PID.TID 0000.0001) > &
(PID.TID 0000.0001) >
(PID.TID 0000.0001) >#--   Constants for vertical dif. and sh. conv. (namelist AIM_PAR_VDI):
(PID.TID 0000.0001) >#      TRSHC  = relaxation time (in hours) for shallow convection
(PID.TID 0000.0001) >#      TRVDI  = relaxation time (in hours) for moisture diffusion
(PID.TID 0000.0001) >#      TRVDS  = relaxation time (in hours) for super-adiab. conditions
(PID.TID 0000.0001) >#      RHGRAD = maximum gradient of relative humidity (d_RH/d_sigma)
(PID.TID 0000.0001) >#      SEGRAD = minimum gradient of dry static energy (d_DSE/d_phi)
(PID.TID 0000.0001) > &AIM_PAR_VDI
(PID.TID 0000.0001) > &
(PID.TID 0000.0001) >
(PID.TID 0000.0001) 
(PID.TID 0000.0001)  AIM_READ_PHYSPARMS: finished reading data.aimphys
(PID.TID 0000.0001) 
(PID.TID 0000.0001) // ===================================
(PID.TID 0000.0001) // AIM physics parameters :
(PID.TID 0000.0001) // ===================================
(PID.TID 0000.0001) useLand =   /* use Land package for surf.BC over land  */
(PID.TID 0000.0001)                   F
(PID.TID 0000.0001)     ;
(PID.TID 0000.0001) aim_useFMsurfBC =   /* F.Molteni surf. BC scheme on/off flag */
(PID.TID 0000.0001)                   F
(PID.TID 0000.0001)     ;
(PID.TID 0000.0001) aim_useMMsurfFc =   /* Monthly Mean surf. Forcing on/off flag */
(PID.TID 0000.0001)                   F
(PID.TID 0000.0001)     ;
(PID.TID 0000.0001) aim_surfPotTemp =   /* Surf Temp file in Pot.Temp on/off flag */
(PID.TID 0000.0001)                   F
(PID.TID 0000.0001)     ;
(PID.TID 0000.0001) aim_dragStrato= /* stratospheric-drag damping time scale (s) */
(PID.TID 0000.0001)                 0.000000000000000E+00
(PID.TID 0000.0001)     ;
(PID.TID 0000.0001) aim_taveFreq =   /* Frequency^-1 for time-Aver. output (s) */
(PID.TID 0000.0001)                 2.592000000000000E+06
(PID.TID 0000.0001)     ;
(PID.TID 0000.0001) aim_diagFreq =   /* Frequency^-1 for diagnostic output (s) */
(PID.TID 0000.0001)                 2.592000000000000E+06
(PID.TID 0000.0001)     ;
(PID.TID 0000.0001) aim_tendFreq =   /* Frequency^-1 for tendencies output (s) */
(PID.TID 0000.0001)                 0.000000000000000E+00
(PID.TID 0000.0001)     ;
(PID.TID 0000.0001) AIM_FOR:   SOLC =   /* Solar constant (area averaged) in W/m2 */
(PID.TID 0000.0001)                 3.420000000000000E+02
(PID.TID 0000.0001)     ;
(PID.TID 0000.0001) AIM_FOR: ALBSEA =   /* Albedo over sea [0-1]      */
(PID.TID 0000.0001)                 7.000000000000001E-02
(PID.TID 0000.0001)     ;
(PID.TID 0000.0001) AIM_FOR: ALBICE =   /* Albedo over sea ice (for ice fraction =1) */
(PID.TID 0000.0001)                 6.000000000000000E-01
(PID.TID 0000.0001)     ;
(PID.TID 0000.0001) AIM_FOR:  ALBSN =   /* Albedo over snow (for snow depth > SDALB) */
(PID.TID 0000.0001)                 6.000000000000000E-01
(PID.TID 0000.0001)     ;
(PID.TID 0000.0001) AIM_FOR:  SDALB =   /* Snow depth (mm H2O) corresp. maximum albedo */
(PID.TID 0000.0001)                 6.000000000000000E+01
(PID.TID 0000.0001)     ;
(PID.TID 0000.0001) AIM_FOR:  SWCAP =   /* Soil wetness at field capacity (Vol.fract.) */
(PID.TID 0000.0001)                 3.000000000000000E-01
(PID.TID 0000.0001)     ;
(PID.TID 0000.0001) AIM_FOR:  SWWIL =   /* Soil wetness at wilting point  (Vol.fract.) */
(PID.TID 0000.0001)                 1.700000000000000E-01
(PID.TID 0000.0001)     ;
(PID.TID 0000.0001) AIM_SFL: FWIND0 =   /* ratio of near-sfc wind to lowest-level wind */
(PID.TID 0000.0001)                 6.000000000000000E-01
(PID.TID 0000.0001)     ;
(PID.TID 0000.0001) AIM_SFL: FTEMP0 =  /* weight for near-sfc temp. extrapolation (0-1)*/
(PID.TID 0000.0001)                 1.000000000000000E+00
(PID.TID 0000.0001)     ;
(PID.TID 0000.0001) AIM_SFL:  FHUM0 =  /* weight for near-sfc spec.humid. extrap. (0-1)*/
(PID.TID 0000.0001)                 1.000000000000000E+00
(PID.TID 0000.0001)     ;
(PID.TID 0000.0001) AIM_SFL:    CDL =   /* drag coefficient for momentum over land */
(PID.TID 0000.0001)                 1.800000000000000E-03
(PID.TID 0000.0001)     ;
(PID.TID 0000.0001) AIM_SFL:    CDS =   /* drag coefficient for momentum over sea  */
(PID.TID 0000.0001)                 8.000000000000000E-04
(PID.TID 0000.0001)     ;
(PID.TID 0000.0001) AIM_SFL:    CHL =   /* heat exchange coefficient over land */
(PID.TID 0000.0001)                 1.200000000000000E-03
(PID.TID 0000.0001)     ;
(PID.TID 0000.0001) AIM_SFL:    CHS =   /* heat exchange coefficient over sea  */
(PID.TID 0000.0001)                 8.000000000000000E-04
(PID.TID 0000.0001)     ;
(PID.TID 0000.0001) AIM_SFL:  VGUST =   /* wind speed [m/s] for sub-grid-scale gusts */
(PID.TID 0000.0001)                 5.000000000000000E+00
(PID.TID 0000.0001)     ;
(PID.TID 0000.0001) AIM_SFL:  CTDAY =   /* daily-cycle correction (dTskin/dSSRad) */
(PID.TID 0000.0001)                 1.000000000000000E-02
(PID.TID 0000.0001)     ;
(PID.TID 0000.0001) AIM_SFL: DTHETA =   /* Pot.Temp. gradient for stability correction */
(PID.TID 0000.0001)                 3.000000000000000E+00
(PID.TID 0000.0001)     ;
(PID.TID 0000.0001) AIM_SFL:  FSTAB =   /* Amplitude of stability correction (fract.) */
(PID.TID 0000.0001)                 6.700000000000000E-01
(PID.TID 0000.0001)     ;
(PID.TID 0000.0001) AIM_SFL:  HDRAG =   /* Height scale for orographic correction */
(PID.TID 0000.0001)                 2.000000000000000E+03
(PID.TID 0000.0001)     ;
(PID.TID 0000.0001) AIM_SFL: FHDRAG =   /* Amplitude of orographic correction (fract.)*/
(PID.TID 0000.0001)                 8.000000000000000E-01
(PID.TID 0000.0001)     ;
(PID.TID 0000.0001) AIM_CNV:  PSMIN =   /* min norm.sfc.P. for occurrence of convect. */
(PID.TID 0000.0001)                 7.000000000000000E-01
(PID.TID 0000.0001)     ;
(PID.TID 0000.0001) AIM_CNV:  TRCNV =   /* time of relaxation [h] towards ref state */
(PID.TID 0000.0001)                 6.000000000000000E+00
(PID.TID 0000.0001)     ;
(PID.TID 0000.0001) AIM_CNV:    QBL =   /* specific hum. threshold in the Bound.layer */
(PID.TID 0000.0001)                 1.500000000000000E+01
(PID.TID 0000.0001)     ;
(PID.TID 0000.0001) AIM_CNV:   RHBL =   /* relative hum. threshold in the Bound.layer */
(PID.TID 0000.0001)                 8.000000000000000E-01
(PID.TID 0000.0001)     ;
(PID.TID 0000.0001) AIM_CNV:   RHIL =   /* rel.hum. threshold (intern) for 2nd mass.Flx*/
(PID.TID 0000.0001)                 7.000000000000000E-01
(PID.TID 0000.0001)     ;
(PID.TID 0000.0001) AIM_CNV: ENTMAX =   /* time of relaxation [h] towards neutral eq. */
(PID.TID 0000.0001)                 5.000000000000000E-01
(PID.TID 0000.0001)     ;
(PID.TID 0000.0001) AIM_CNV:    SMF =   /* ratio 2ndary/primary mass.Flx at cloud-base*/
(PID.TID 0000.0001)                 5.000000000000000E-01
(PID.TID 0000.0001)     ;
(PID.TID 0000.0001) AIM_LSC:  TRLSC =   /* relaxation time [h] for supersat. spec.hum. */
(PID.TID 0000.0001)                 4.000000000000000E+00
(PID.TID 0000.0001)     ;
(PID.TID 0000.0001) AIM_LSC:  RHLSC =   /* Max rel.humidity threshold (at sigma=1) */
(PID.TID 0000.0001)                 9.000000000000000E-01
(PID.TID 0000.0001)     ;
(PID.TID 0000.0001) AIM_LSC: DRHLSC =   /* Vertical range of rel.humidity threshold */
(PID.TID 0000.0001)                 1.000000000000000E-01
(PID.TID 0000.0001)     ;
(PID.TID 0000.0001) AIM_LSC:  QSMAX =   /* Define the maximum latent heat release */
(PID.TID 0000.0001)                 5.000000000000000E+01
(PID.TID 0000.0001)     ;
(PID.TID 0000.0001) AIM_RAD:  RHCL1 =   /*  rel.hum. corresponding to cloud cover = 0 */
(PID.TID 0000.0001)                 4.500000000000000E-01
(PID.TID 0000.0001)     ;
(PID.TID 0000.0001) AIM_RAD:  RHCL2 =   /*  rel.hum. corresponding to cloud cover = 1 */
(PID.TID 0000.0001)                 8.500000000000000E-01
(PID.TID 0000.0001)     ;
(PID.TID 0000.0001) AIM_RAD:  QACL1 =   /* spec.hum. threshold for cloud, upper trop. */
(PID.TID 0000.0001)                 1.000000000000000E-01
(PID.TID 0000.0001)     ;
(PID.TID 0000.0001) AIM_RAD:  QACL2 =   /* spec.hum. threshold for cloud, upper trop. */
(PID.TID 0000.0001)                 1.000000000000000E+00
(PID.TID 0000.0001)     ;
(PID.TID 0000.0001) AIM_RAD:  ALBCL =   /*  cloud albedo (for cloud cover = 1) */
(PID.TID 0000.0001)                 4.000000000000000E-01
(PID.TID 0000.0001)     ;
(PID.TID 0000.0001) AIM_RAD:  EPSSW =   /*  fract. of inc.solar rad. absorbed by ozone */
(PID.TID 0000.0001)                 1.500000000000000E-02
(PID.TID 0000.0001)     ;
(PID.TID 0000.0001) AIM_RAD:  EPSLW =   /*  fract. of sfc LW emitted directly to space */
(PID.TID 0000.0001)                 0.000000000000000E+00
(PID.TID 0000.0001)     ;
(PID.TID 0000.0001) AIM_RAD: EMISFC =   /*  longwave surface emissivity */
(PID.TID 0000.0001)                 9.800000000000000E-01
(PID.TID 0000.0001)     ;
(PID.TID 0000.0001)  AIM_RAD : ShortWave absorptivities (for dp = 10^5 Pa) :
(PID.TID 0000.0001) AIM_RAD: ABSDRY =   /* abs. of dry air (visible band) */
(PID.TID 0000.0001)                 3.300000000000000E-02
(PID.TID 0000.0001)     ;
(PID.TID 0000.0001) AIM_RAD: ABSAER =   /* abs. of aerosols (visible band) */
(PID.TID 0000.0001)                 3.300000000000000E-02
(PID.TID 0000.0001)     ;
(PID.TID 0000.0001) AIM_RAD: ABSWV1 =   /* abs. of water vap. (vis. band)(/dq, 1g/kg) */
(PID.TID 0000.0001)                 2.200000000000000E-02
(PID.TID 0000.0001)     ;
(PID.TID 0000.0001) AIM_RAD: ABSWV1 =   /* abs. of water vap. (vis. band)(/dq, 1g/kg) */
(PID.TID 0000.0001)                 2.200000000000000E-02
(PID.TID 0000.0001)     ;
(PID.TID 0000.0001) AIM_RAD: ABSWV2 =   /* abs. of water vap.(near IR bd)(/dq, 1g/kg) */
(PID.TID 0000.0001)                 1.500000000000000E+01
(PID.TID 0000.0001)     ;
(PID.TID 0000.0001) AIM_RAD: ABSCL1 =   /* abs. of clouds (vis.band)(constant term) */
(PID.TID 0000.0001)                 0.000000000000000E+00
(PID.TID 0000.0001)     ;
(PID.TID 0000.0001) AIM_RAD: ABSCL2 =   /* abs. of clouds (vis.band) (/dw, 1g/kg) */
(PID.TID 0000.0001)                 1.000000000000000E-02
(PID.TID 0000.0001)     ;
(PID.TID 0000.0001) AIM_RAD: ABLWIN =   /* abs. of air in "window" band */
(PID.TID 0000.0001)                 7.000000000000000E-01
(PID.TID 0000.0001)     ;
(PID.TID 0000.0001) AIM_RAD: ABLCO2 =   /* abs. of air in CO2 band */
(PID.TID 0000.0001)                 4.000000000000000E+00
(PID.TID 0000.0001)     ;
(PID.TID 0000.0001) AIM_RAD: ABLWV1 =   /* abs. of Water vap. H2O bd-1(weak)(/dq,1g/kg)*/
(PID.TID 0000.0001)                 7.000000000000000E-01
(PID.TID 0000.0001)     ;
(PID.TID 0000.0001) AIM_RAD: ABLWV2 =   /* abs. of W. vap., H2O bd-2(strong)(/dq,1g/kg)*/
(PID.TID 0000.0001)                 5.000000000000000E+01
(PID.TID 0000.0001)     ;
(PID.TID 0000.0001) AIM_RAD: ABLCL1 =   /* abs. of clouds in window band (const term) */
(PID.TID 0000.0001)                 1.200000000000000E+01
(PID.TID 0000.0001)     ;
(PID.TID 0000.0001) AIM_RAD: ABLCL2 =   /* abs. of clouds in window band (/dw, 1g/kg) */
(PID.TID 0000.0001)                 0.000000000000000E+00
(PID.TID 0000.0001)     ;
(PID.TID 0000.0001) AIM_VDI:  TRSHC =   /* relaxation time [h] for shallow convection */
(PID.TID 0000.0001)                 2.400000000000000E+01
(PID.TID 0000.0001)     ;
(PID.TID 0000.0001) AIM_VDI:  TRVDI =   /* relaxation time [h] for moisture diffusion */
(PID.TID 0000.0001)                 4.000000000000000E+01
(PID.TID 0000.0001)     ;
(PID.TID 0000.0001) AIM_VDI:  TRVDS =   /* relaxation time [h] for super-adiab. cond. */
(PID.TID 0000.0001)                 5.000000000000000E+00
(PID.TID 0000.0001)     ;
(PID.TID 0000.0001) AIM_VDI: RHGRAD =   /* max gradient of rel.humidity (d_RH/d_sigma)*/
(PID.TID 0000.0001)                 5.000000000000000E-01
(PID.TID 0000.0001)     ;
(PID.TID 0000.0001) AIM_VDI: RHGRAD =   /* max grad. of dry static Energy(d_DSE/d_phi)*/
(PID.TID 0000.0001)                 5.000000000000000E-01
(PID.TID 0000.0001)     ;
INI_P_GROUND: PhiRef/g [m] at Center (integer) and Interface (half-int.) levels:
  K=  0.5  ;  r=  100000.0  ;  phiRef/g=       0.000
  K=  1.0  ;  r=   95000.0  ;  phiRef/g=     431.199
  K=  1.5  ;  r=   90000.0  ;  phiRef/g=    1256.487
  K=  2.0  ;  r=   77500.0  ;  phiRef/g=    2105.998
  K=  2.5  ;  r=   65000.0  ;  phiRef/g=    3775.246
  K=  3.0  ;  r=   50000.0  ;  phiRef/g=    5536.327
  K=  3.5  ;  r=   35000.0  ;  phiRef/g=    7908.298
  K=  4.0  ;  r=   25000.0  ;  phiRef/g=   10440.915
  K=  4.5  ;  r=   15000.0  ;  phiRef/g=   13806.721
  K=  5.0  ;  r=    7500.0  ;  phiRef/g=   18190.889
  K=  5.5  ;  r=       0.0  ;  phiRef/g=   39547.504
(PID.TID 0000.0001) %MON fCori_max                    =   7.4773213164249E-05
(PID.TID 0000.0001) %MON fCori_min                    =  -7.4773213164249E-05
(PID.TID 0000.0001) %MON fCori_mean                   =   1.9250748801234E-23
(PID.TID 0000.0001) %MON fCori_sd                     =   4.6907817211332E-05
(PID.TID 0000.0001) %MON fCoriG_max                   =   7.1689136096147E-05
(PID.TID 0000.0001) %MON fCoriG_min                   =  -7.7812249644691E-05
(PID.TID 0000.0001) %MON fCoriG_mean                  =  -3.3831412888996E-06
(PID.TID 0000.0001) %MON fCoriG_sd                    =   4.5863229796664E-05
(PID.TID 0000.0001) %MON fCoriCos_max                 =   1.4544410433286E-04
(PID.TID 0000.0001) %MON fCoriCos_min                 =   1.2475156944216E-04
(PID.TID 0000.0001) %MON fCoriCos_mean                =   1.3785541688514E-04
(PID.TID 0000.0001) %MON fCoriCos_sd                  =   6.7227454031353E-06
(PID.TID 0000.0001) // CG2D normalisation factor =          0.8577286100002720669113754E-05
(PID.TID 0000.0001) 
 ini_cg2d: sumArea,cg2dTolerance =  2.72797620993304E+14  3.89977207109946E-11
(PID.TID 0000.0001) CONFIG_CHECK: OK
(PID.TID 0000.0001) // =======================================================
(PID.TID 0000.0001) // Model configuration
(PID.TID 0000.0001) // =======================================================
(PID.TID 0000.0001) //
(PID.TID 0000.0001) // "Physical" paramters ( PARM01 in namelist )
(PID.TID 0000.0001) //
(PID.TID 0000.0001) buoyancyRelation = ATMOSPHERIC
(PID.TID 0000.0001) tRef =   /* Reference temperature profile ( oC or oK ) */
(PID.TID 0000.0001)                 2.896000000000000E+02,      /* K =  1 */
(PID.TID 0000.0001)                 2.981000000000000E+02,      /* K =  2 */
(PID.TID 0000.0001)                 3.145000000000000E+02,      /* K =  3 */
(PID.TID 0000.0001)                 3.358000000000000E+02,      /* K =  4 */
(PID.TID 0000.0001)                 4.374000000000000E+02       /* K =  5 */
(PID.TID 0000.0001)     ;
(PID.TID 0000.0001) sRef =   /* Reference salinity profile ( ppt ) */
(PID.TID 0000.0001)     5 @  0.000000000000000E+00              /* K =  1:  5 */
(PID.TID 0000.0001)     ;
(PID.TID 0000.0001) viscAh =   /* Lateral eddy viscosity ( m^2/s ) */
(PID.TID 0000.0001)                 0.000000000000000E+00
(PID.TID 0000.0001)     ;
(PID.TID 0000.0001) viscA4 =   /* Lateral biharmonic viscosity ( m^4/s ) */
(PID.TID 0000.0001)                 0.000000000000000E+00
(PID.TID 0000.0001)     ;
(PID.TID 0000.0001) no_slip_sides =  /* Viscous BCs: No-slip sides */
(PID.TID 0000.0001)                   F
(PID.TID 0000.0001)     ;
(PID.TID 0000.0001) viscAr =   /* Vertical eddy viscosity ( units of r^2/s ) */
(PID.TID 0000.0001)                 0.000000000000000E+00
(PID.TID 0000.0001)     ;
(PID.TID 0000.0001) diffKhT =   /* Laplacian diffusion of heat laterally ( m^2/s ) */
(PID.TID 0000.0001)                 0.000000000000000E+00
(PID.TID 0000.0001)     ;
(PID.TID 0000.0001) diffK4T =   /* Bihaarmonic diffusion of heat laterally ( m^4/s ) */
(PID.TID 0000.0001)                 0.000000000000000E+00
(PID.TID 0000.0001)     ;
(PID.TID 0000.0001) diffKrT =   /* Laplacian diffusion of heat vertically ( m^2/s ) */
(PID.TID 0000.0001)                 0.000000000000000E+00
(PID.TID 0000.0001)     ;
(PID.TID 0000.0001) diffKhS =   /* Laplacian diffusion of salt laterally ( m^2/s ) */
(PID.TID 0000.0001)                 0.000000000000000E+00
(PID.TID 0000.0001)     ;
(PID.TID 0000.0001) diffK4S =   /* Bihaarmonic diffusion of salt laterally ( m^4/s ) */
(PID.TID 0000.0001)                 0.000000000000000E+00
(PID.TID 0000.0001)     ;
(PID.TID 0000.0001) diffKrS =   /* Laplacian diffusion of salt vertically ( m^2/s ) */
(PID.TID 0000.0001)                 0.000000000000000E+00
(PID.TID 0000.0001)     ;
(PID.TID 0000.0001)  Equation of State : eosType = IDEALG
(PID.TID 0000.0001) tAlpha =   /* Linear EOS thermal expansion coefficient ( 1/degree ) */
(PID.TID 0000.0001)                 1.234567000000000E+05
(PID.TID 0000.0001)     ;
(PID.TID 0000.0001) sBeta =   /* Linear EOS haline contraction coefficient ( 1/ppt ) */
(PID.TID 0000.0001)                 1.234567000000000E+05
(PID.TID 0000.0001)     ;
(PID.TID 0000.0001) atm_Rd =  /* gas constant for dry air ( J/kg/K ) */
(PID.TID 0000.0001)                 2.868571428571428E+02
(PID.TID 0000.0001)     ;
(PID.TID 0000.0001) atm_Cp =  /* specific heat (Cp) of dry air ( J/kg/K ) */
(PID.TID 0000.0001)                 1.004000000000000E+03
(PID.TID 0000.0001)     ;
(PID.TID 0000.0001) atm_kappa =  /* kappa (=Rd/Cp ) of dry air */
(PID.TID 0000.0001)                 2.857142857142857E-01
(PID.TID 0000.0001)     ;
(PID.TID 0000.0001) atm_Rq = /* water vap. specific vol. anomaly relative to dry air */
(PID.TID 0000.0001)                 0.000000000000000E+00
(PID.TID 0000.0001)     ;
(PID.TID 0000.0001) atm_Po =  /* standard reference pressure ( Pa ) */
(PID.TID 0000.0001)                 1.000000000000000E+05
(PID.TID 0000.0001)     ;
(PID.TID 0000.0001) integr_GeoPot =  /* select how the geopotential is integrated */
(PID.TID 0000.0001)                       2
(PID.TID 0000.0001)     ;
(PID.TID 0000.0001) selectFindRoSurf=  /* select how Surf.Ref. pressure is defined */
(PID.TID 0000.0001)                       0
(PID.TID 0000.0001)     ;
(PID.TID 0000.0001) rhonil =   /* Reference density ( kg/m^3 ) */
(PID.TID 0000.0001)                 1.000000000000000E+00
(PID.TID 0000.0001)     ;
(PID.TID 0000.0001) rhoConst =   /* Reference density ( kg/m^3 ) */
(PID.TID 0000.0001)                 1.000000000000000E+00
(PID.TID 0000.0001)     ;
(PID.TID 0000.0001) rhoConstFresh =   /* Reference density ( kg/m^3 ) */
(PID.TID 0000.0001)                 1.000000000000000E+03
(PID.TID 0000.0001)     ;
(PID.TID 0000.0001) gravity =   /* Gravitational acceleration ( m/s^2 ) */
(PID.TID 0000.0001)                 9.810000000000000E+00
(PID.TID 0000.0001)     ;
(PID.TID 0000.0001) gBaro =   /* Barotropic gravity ( m/s^2 ) */
(PID.TID 0000.0001)                 9.810000000000000E+00
(PID.TID 0000.0001)     ;
(PID.TID 0000.0001) rotationPeriod =   /* Rotation Period ( s ) */
(PID.TID 0000.0001)                 8.640000000000000E+04
(PID.TID 0000.0001)     ;
(PID.TID 0000.0001) omega =   /* Angular velocity ( rad/s ) */
(PID.TID 0000.0001)                 7.272205216643040E-05
(PID.TID 0000.0001)     ;
(PID.TID 0000.0001) f0 =   /* Reference coriolis parameter ( 1/s ) */
(PID.TID 0000.0001)                 1.000000000000000E-04
(PID.TID 0000.0001)     ;
(PID.TID 0000.0001) beta =   /* Beta ( 1/(m.s) ) */
(PID.TID 0000.0001)                 9.999999999999999E-12
(PID.TID 0000.0001)     ;
(PID.TID 0000.0001) freeSurfFac =   /* Implicit free surface factor */
(PID.TID 0000.0001)                 1.000000000000000E+00
(PID.TID 0000.0001)     ;
(PID.TID 0000.0001) implicitFreeSurface =   /* Implicit free surface on/off flag */
(PID.TID 0000.0001)                   T
(PID.TID 0000.0001)     ;
(PID.TID 0000.0001) rigidLid =   /* Rigid lid on/off flag */
(PID.TID 0000.0001)                   F
(PID.TID 0000.0001)     ;
(PID.TID 0000.0001) implicSurfPress =   /* Surface Pressure implicit factor (0-1)*/
(PID.TID 0000.0001)                 1.000000000000000E+00
(PID.TID 0000.0001)     ;
(PID.TID 0000.0001) implicDiv2Dflow =   /* Barot. Flow Div. implicit factor (0-1)*/
(PID.TID 0000.0001)                 1.000000000000000E+00
(PID.TID 0000.0001)     ;
(PID.TID 0000.0001) exactConserv =   /* Exact Volume Conservation on/off flag*/
(PID.TID 0000.0001)                   T
(PID.TID 0000.0001)     ;
(PID.TID 0000.0001) uniformLin_PhiSurf =   /* use uniform Bo_surf on/off flag*/
(PID.TID 0000.0001)                   T
(PID.TID 0000.0001)     ;
(PID.TID 0000.0001) nonlinFreeSurf =   /* Non-linear Free Surf. options (-1,0,1,2,3)*/
(PID.TID 0000.0001)                       0
(PID.TID 0000.0001)     ;
(PID.TID 0000.0001)      -1,0= Off ; 1,2,3= On, 2=+rescale gU,gV, 3=+update cg2d solv.
(PID.TID 0000.0001) hFacInf =   /* lower threshold for hFac (nonlinFreeSurf only)*/
(PID.TID 0000.0001)                 2.000000000000000E-01
(PID.TID 0000.0001)     ;
(PID.TID 0000.0001) hFacSup =   /* upper threshold for hFac (nonlinFreeSurf only)*/
(PID.TID 0000.0001)                 2.000000000000000E+00
(PID.TID 0000.0001)     ;
(PID.TID 0000.0001) select_rStar =   /* r* Coordinate options (not yet implemented)*/
(PID.TID 0000.0001)                       0
(PID.TID 0000.0001)     ;
(PID.TID 0000.0001) useRealFreshWaterFlux =   /* Real Fresh Water Flux on/off flag*/
(PID.TID 0000.0001)                   F
(PID.TID 0000.0001)     ;
(PID.TID 0000.0001) convertFW2Salt = /* convert F.W. Flux to Salt Flux (-1=use local S)(ppt)*/
(PID.TID 0000.0001)                 3.500000000000000E+01
(PID.TID 0000.0001)     ;
(PID.TID 0000.0001) nonHydrostatic =  /* Non-Hydrostatic on/off flag */
(PID.TID 0000.0001)                   F
(PID.TID 0000.0001)     ;
(PID.TID 0000.0001) momStepping =  /* Momentum equation on/off flag */
(PID.TID 0000.0001)                   T
(PID.TID 0000.0001)     ;
(PID.TID 0000.0001) momAdvection =  /* Momentum advection on/off flag */
(PID.TID 0000.0001)                   T
(PID.TID 0000.0001)     ;
(PID.TID 0000.0001) momViscosity =  /* Momentum viscosity on/off flag */
(PID.TID 0000.0001)                   T
(PID.TID 0000.0001)     ;
(PID.TID 0000.0001) momImplVertAdv =/* Momentum implicit vert. advection on/off*/
(PID.TID 0000.0001)                   F
(PID.TID 0000.0001)     ;
(PID.TID 0000.0001) implicitViscosity = /* Implicit viscosity on/off flag */
(PID.TID 0000.0001)                   F
(PID.TID 0000.0001)     ;
(PID.TID 0000.0001) useCoriolis =  /* Coriolis on/off flag */
(PID.TID 0000.0001)                   T
(PID.TID 0000.0001)     ;
(PID.TID 0000.0001) useCDscheme =  /* CD scheme on/off flag */
(PID.TID 0000.0001)                   F
(PID.TID 0000.0001)     ;
(PID.TID 0000.0001) useJamartWetPoints= /* Coriolis WetPoints method flag */
(PID.TID 0000.0001)                   F
(PID.TID 0000.0001)     ;
(PID.TID 0000.0001) momForcing =  /* Momentum forcing on/off flag */
(PID.TID 0000.0001)                   T
(PID.TID 0000.0001)     ;
(PID.TID 0000.0001) momPressureForcing =  /* Momentum pressure term on/off flag */
(PID.TID 0000.0001)                   T
(PID.TID 0000.0001)     ;
(PID.TID 0000.0001) staggerTimeStep =   /* Stagger time stepping on/off flag */
(PID.TID 0000.0001)                   T
(PID.TID 0000.0001)     ;
(PID.TID 0000.0001) multiDimAdvection =   /* enable/disable Multi-Dim Advection */
(PID.TID 0000.0001)                   T
(PID.TID 0000.0001)     ;
(PID.TID 0000.0001) implicitDiffusion =/* Implicit Diffusion on/off flag */
(PID.TID 0000.0001)                   F
(PID.TID 0000.0001)     ;
(PID.TID 0000.0001) tempStepping =  /* Temperature equation on/off flag */
(PID.TID 0000.0001)                   T
(PID.TID 0000.0001)     ;
(PID.TID 0000.0001) tempAdvection=  /* Temperature advection on/off flag */
(PID.TID 0000.0001)                   T
(PID.TID 0000.0001)     ;
(PID.TID 0000.0001) tempImplVertAdv =/* Temp. implicit vert. advection on/off */
(PID.TID 0000.0001)                   F
(PID.TID 0000.0001)     ;
(PID.TID 0000.0001) tempForcing  =  /* Temperature forcing on/off flag */
(PID.TID 0000.0001)                   T
(PID.TID 0000.0001)     ;
(PID.TID 0000.0001) saltStepping =  /* Salinity equation on/off flag */
(PID.TID 0000.0001)                   T
(PID.TID 0000.0001)     ;
(PID.TID 0000.0001) saltAdvection=  /* Salinity advection on/off flag */
(PID.TID 0000.0001)                   T
(PID.TID 0000.0001)     ;
(PID.TID 0000.0001) saltImplVertAdv =/* Sali. implicit vert. advection on/off */
(PID.TID 0000.0001)                   F
(PID.TID 0000.0001)     ;
(PID.TID 0000.0001) saltForcing  =  /* Salinity forcing on/off flag */
(PID.TID 0000.0001)                   T
(PID.TID 0000.0001)     ;
(PID.TID 0000.0001) //
(PID.TID 0000.0001) // Elliptic solver(s) paramters ( PARM02 in namelist )
(PID.TID 0000.0001) //
(PID.TID 0000.0001) cg2dMaxIters =   /* Upper limit on 2d con. grad iterations  */
(PID.TID 0000.0001)                     200
(PID.TID 0000.0001)     ;
(PID.TID 0000.0001) cg2dChkResFreq =   /* 2d con. grad convergence test frequency */
(PID.TID 0000.0001)                       1
(PID.TID 0000.0001)     ;
(PID.TID 0000.0001) cg2dTargetResidual =   /* 2d con. grad target residual  */
(PID.TID 0000.0001)                 1.000000000000000E-07
(PID.TID 0000.0001)     ;
(PID.TID 0000.0001) //
(PID.TID 0000.0001) // Time stepping paramters ( PARM03 in namelist )
(PID.TID 0000.0001) //
(PID.TID 0000.0001) nIter0 =   /* Base timestep number  */
(PID.TID 0000.0001)                   51840
(PID.TID 0000.0001)     ;
(PID.TID 0000.0001) nTimeSteps =   /* Number of timesteps */
(PID.TID 0000.0001)                      10
(PID.TID 0000.0001)     ;
(PID.TID 0000.0001) deltatTmom =   /* Momentum equation timestep ( s ) */
(PID.TID 0000.0001)                 6.000000000000000E+02
(PID.TID 0000.0001)     ;
(PID.TID 0000.0001) deltaTfreesurf =   /* FreeSurface equation timestep ( s ) */
(PID.TID 0000.0001)                 6.000000000000000E+02
(PID.TID 0000.0001)     ;
(PID.TID 0000.0001) deltatTtracer =   /* Tracer equation timestep ( s ) */
(PID.TID 0000.0001)                 6.000000000000000E+02
(PID.TID 0000.0001)     ;
(PID.TID 0000.0001) deltatTClock  =   /* Model clock timestep ( s ) */
(PID.TID 0000.0001)                 6.000000000000000E+02
(PID.TID 0000.0001)     ;
(PID.TID 0000.0001) cAdjFreq =   /* Convective adjustment interval ( s ) */
(PID.TID 0000.0001)                 0.000000000000000E+00
(PID.TID 0000.0001)     ;
(PID.TID 0000.0001) forcing_In_AB =   /* put T,S Forcing in Adams-Bash. stepping */
(PID.TID 0000.0001)                   F
(PID.TID 0000.0001)     ;
(PID.TID 0000.0001) abeps =   /* Adams-Bashforth stabilizing weight */
(PID.TID 0000.0001)                 1.000000000000000E-01
(PID.TID 0000.0001)     ;
(PID.TID 0000.0001) startTime =   /* Run start time ( s ). */
(PID.TID 0000.0001)                 3.110400000000000E+07
(PID.TID 0000.0001)     ;
(PID.TID 0000.0001) endTime =   /* Integration ending time ( s ). */
(PID.TID 0000.0001)                 3.111000000000000E+07
(PID.TID 0000.0001)     ;
(PID.TID 0000.0001) pChkPtFreq =   /* Permanent restart/checkpoint file interval ( s ). */
(PID.TID 0000.0001)                 2.592000000000000E+06
(PID.TID 0000.0001)     ;
(PID.TID 0000.0001) chkPtFreq =   /* Rolling restart/checkpoint file interval ( s ). */
(PID.TID 0000.0001)                 0.000000000000000E+00
(PID.TID 0000.0001)     ;
(PID.TID 0000.0001) dumpFreq =   /* Model state write out interval ( s ). */
(PID.TID 0000.0001)                 2.592000000000000E+06
(PID.TID 0000.0001)     ;
(PID.TID 0000.0001) externForcingPeriod =   /* forcing period (s) */
(PID.TID 0000.0001)                 0.000000000000000E+00
(PID.TID 0000.0001)     ;
(PID.TID 0000.0001) externForcingCycle =   /* period of the cyle (s). */
(PID.TID 0000.0001)                 0.000000000000000E+00
(PID.TID 0000.0001)     ;
(PID.TID 0000.0001) tauThetaClimRelax =   /* relaxation time scale (s) */
(PID.TID 0000.0001)                 0.000000000000000E+00
(PID.TID 0000.0001)     ;
(PID.TID 0000.0001) tauSaltClimRelax =   /* relaxation time scale (s) */
(PID.TID 0000.0001)                 0.000000000000000E+00
(PID.TID 0000.0001)     ;
(PID.TID 0000.0001) latBandClimRelax =   /* max. Lat. where relaxation */
(PID.TID 0000.0001)                 1.800000000000000E+02
(PID.TID 0000.0001)     ;
(PID.TID 0000.0001) //
(PID.TID 0000.0001) // Gridding paramters ( PARM04 in namelist )
(PID.TID 0000.0001) //
(PID.TID 0000.0001) usingCartesianGrid =   /* Cartesian coordinates flag ( True / False ) */
(PID.TID 0000.0001)                   F
(PID.TID 0000.0001)     ;
(PID.TID 0000.0001) usingSphericalPolarGrid =   /* Spherical coordinates flag ( True / False ) */
(PID.TID 0000.0001)                   T
(PID.TID 0000.0001)     ;
(PID.TID 0000.0001) groundAtK1 =   /* Lower Boundary (ground) at the surface(k=1) ( T / F ) */
(PID.TID 0000.0001)                   T
(PID.TID 0000.0001)     ;
(PID.TID 0000.0001) Ro_SeaLevel =   /* r(1) ( units of r ) */
(PID.TID 0000.0001)                 1.000000000000000E+05
(PID.TID 0000.0001)     ;
(PID.TID 0000.0001) rkFac =   /* minus Vertical index orientation  */
(PID.TID 0000.0001)                 1.000000000000000E+00
(PID.TID 0000.0001)     ;
(PID.TID 0000.0001) horiVertRatio =   /* Ratio on units : Horiz - Vertical */
(PID.TID 0000.0001)                 9.810000000000000E+00
(PID.TID 0000.0001)     ;
(PID.TID 0000.0001) drC =   /* C spacing ( units of r ) */
(PID.TID 0000.0001)                 5.000000000000000E+03,      /* K =  1 */
(PID.TID 0000.0001)                 1.750000000000000E+04,      /* K =  2 */
(PID.TID 0000.0001)                 2.750000000000000E+04,      /* K =  3 */
(PID.TID 0000.0001)                 2.500000000000000E+04,      /* K =  4 */
(PID.TID 0000.0001)                 1.750000000000000E+04       /* K =  5 */
(PID.TID 0000.0001)     ;
(PID.TID 0000.0001) drF =   /* W spacing ( units of r ) */
(PID.TID 0000.0001)                 1.000000000000000E+04,      /* K =  1 */
(PID.TID 0000.0001)                 2.500000000000000E+04,      /* K =  2 */
(PID.TID 0000.0001)                 3.000000000000000E+04,      /* K =  3 */
(PID.TID 0000.0001)                 2.000000000000000E+04,      /* K =  4 */
(PID.TID 0000.0001)                 1.500000000000000E+04       /* K =  5 */
(PID.TID 0000.0001)     ;
(PID.TID 0000.0001) delX =   /* U spacing ( m - cartesian, degrees - spherical ) */
(PID.TID 0000.0001)   128 @  2.812500000000000E+00              /* I =  1:128 */
(PID.TID 0000.0001)     ;
(PID.TID 0000.0001) delY =   /* V spacing ( m - cartesian, degrees - spherical ) */
(PID.TID 0000.0001)    23 @  2.812500000000000E+00              /* J =  1: 23 */
(PID.TID 0000.0001)     ;
(PID.TID 0000.0001) phiMin =    /* South edge (ignored - cartesian, degrees - spherical ) */
(PID.TID 0000.0001)                -3.234375000000000E+01
(PID.TID 0000.0001)     ;
(PID.TID 0000.0001) thetaMin =    /* West edge ( ignored - cartesian, degrees - spherical ) */
(PID.TID 0000.0001)                 0.000000000000000E+00
(PID.TID 0000.0001)     ;
(PID.TID 0000.0001) rSphere =    /* Radius ( ignored - cartesian, m - spherical ) */
(PID.TID 0000.0001)                 6.370000000000000E+06
(PID.TID 0000.0001)     ;
(PID.TID 0000.0001) xcoord =   /* P-point X coord ( m - cartesian, degrees - spherical ) */
(PID.TID 0000.0001)                 1.406250000000000E+00,      /* I =  1 */
(PID.TID 0000.0001)                 4.218750000000000E+00,      /* I =  2 */
(PID.TID 0000.0001)                 7.031250000000000E+00,      /* I =  3 */
(PID.TID 0000.0001)                 9.843750000000000E+00,      /* I =  4 */
(PID.TID 0000.0001)                 1.265625000000000E+01,      /* I =  5 */
(PID.TID 0000.0001)                 1.546875000000000E+01,      /* I =  6 */
(PID.TID 0000.0001)                 1.828125000000000E+01,      /* I =  7 */
(PID.TID 0000.0001)                 2.109375000000000E+01,      /* I =  8 */
(PID.TID 0000.0001)                 2.390625000000000E+01,      /* I =  9 */
(PID.TID 0000.0001)                 2.671875000000000E+01,      /* I = 10 */
(PID.TID 0000.0001)                 2.953125000000000E+01,      /* I = 11 */
(PID.TID 0000.0001)                 3.234375000000000E+01,      /* I = 12 */
(PID.TID 0000.0001)                 3.515625000000000E+01,      /* I = 13 */
(PID.TID 0000.0001)                 3.796875000000000E+01,      /* I = 14 */
(PID.TID 0000.0001)                 4.078125000000000E+01,      /* I = 15 */
(PID.TID 0000.0001)                 4.359375000000000E+01,      /* I = 16 */
(PID.TID 0000.0001)                 4.640625000000000E+01,      /* I = 17 */
(PID.TID 0000.0001)                 4.921875000000000E+01,      /* I = 18 */
(PID.TID 0000.0001)                 5.203125000000000E+01,      /* I = 19 */
(PID.TID 0000.0001)                 5.484375000000000E+01,      /* I = 20 */
(PID.TID 0000.0001)                 5.765625000000000E+01,      /* I = 21 */
(PID.TID 0000.0001)                 6.046875000000000E+01,      /* I = 22 */
(PID.TID 0000.0001)                 6.328125000000000E+01,      /* I = 23 */
(PID.TID 0000.0001)                 6.609375000000000E+01,      /* I = 24 */
(PID.TID 0000.0001)                 6.890625000000000E+01,      /* I = 25 */
(PID.TID 0000.0001)                 7.171875000000000E+01,      /* I = 26 */
(PID.TID 0000.0001)                 7.453125000000000E+01,      /* I = 27 */
(PID.TID 0000.0001)                 7.734375000000000E+01,      /* I = 28 */
(PID.TID 0000.0001)                 8.015625000000000E+01,      /* I = 29 */
(PID.TID 0000.0001)                 8.296875000000000E+01,      /* I = 30 */
(PID.TID 0000.0001)                 8.578125000000000E+01,      /* I = 31 */
(PID.TID 0000.0001)                 8.859375000000000E+01,      /* I = 32 */
(PID.TID 0000.0001)                 9.140625000000000E+01,      /* I = 33 */
(PID.TID 0000.0001)                 9.421875000000000E+01,      /* I = 34 */
(PID.TID 0000.0001)                 9.703125000000000E+01,      /* I = 35 */
(PID.TID 0000.0001)                 9.984375000000000E+01,      /* I = 36 */
(PID.TID 0000.0001)                 1.026562500000000E+02,      /* I = 37 */
(PID.TID 0000.0001)                 1.054687500000000E+02,      /* I = 38 */
(PID.TID 0000.0001)                 1.082812500000000E+02,      /* I = 39 */
(PID.TID 0000.0001)                 1.110937500000000E+02,      /* I = 40 */
(PID.TID 0000.0001)                 1.139062500000000E+02,      /* I = 41 */
(PID.TID 0000.0001)                 1.167187500000000E+02,      /* I = 42 */
(PID.TID 0000.0001)                 1.195312500000000E+02,      /* I = 43 */
(PID.TID 0000.0001)                 1.223437500000000E+02,      /* I = 44 */
(PID.TID 0000.0001)                 1.251562500000000E+02,      /* I = 45 */
(PID.TID 0000.0001)                 1.279687500000000E+02,      /* I = 46 */
(PID.TID 0000.0001)                 1.307812500000000E+02,      /* I = 47 */
(PID.TID 0000.0001)                 1.335937500000000E+02,      /* I = 48 */
(PID.TID 0000.0001)                 1.364062500000000E+02,      /* I = 49 */
(PID.TID 0000.0001)                 1.392187500000000E+02,      /* I = 50 */
(PID.TID 0000.0001)                 1.420312500000000E+02,      /* I = 51 */
(PID.TID 0000.0001)                 1.448437500000000E+02,      /* I = 52 */
(PID.TID 0000.0001)                 1.476562500000000E+02,      /* I = 53 */
(PID.TID 0000.0001)                 1.504687500000000E+02,      /* I = 54 */
(PID.TID 0000.0001)                 1.532812500000000E+02,      /* I = 55 */
(PID.TID 0000.0001)                 1.560937500000000E+02,      /* I = 56 */
(PID.TID 0000.0001)                 1.589062500000000E+02,      /* I = 57 */
(PID.TID 0000.0001)                 1.617187500000000E+02,      /* I = 58 */
(PID.TID 0000.0001)                 1.645312500000000E+02,      /* I = 59 */
(PID.TID 0000.0001)                 1.673437500000000E+02,      /* I = 60 */
(PID.TID 0000.0001)                 1.701562500000000E+02,      /* I = 61 */
(PID.TID 0000.0001)                 1.729687500000000E+02,      /* I = 62 */
(PID.TID 0000.0001)                 1.757812500000000E+02,      /* I = 63 */
(PID.TID 0000.0001)                 1.785937500000000E+02,      /* I = 64 */
(PID.TID 0000.0001)                 1.814062500000000E+02,      /* I = 65 */
(PID.TID 0000.0001)                 1.842187500000000E+02,      /* I = 66 */
(PID.TID 0000.0001)                 1.870312500000000E+02,      /* I = 67 */
(PID.TID 0000.0001)                 1.898437500000000E+02,      /* I = 68 */
(PID.TID 0000.0001)                 1.926562500000000E+02,      /* I = 69 */
(PID.TID 0000.0001)                 1.954687500000000E+02,      /* I = 70 */
(PID.TID 0000.0001)                 1.982812500000000E+02,      /* I = 71 */
(PID.TID 0000.0001)                 2.010937500000000E+02,      /* I = 72 */
(PID.TID 0000.0001)                 2.039062500000000E+02,      /* I = 73 */
(PID.TID 0000.0001)                 2.067187500000000E+02,      /* I = 74 */
(PID.TID 0000.0001)                 2.095312500000000E+02,      /* I = 75 */
(PID.TID 0000.0001)                 2.123437500000000E+02,      /* I = 76 */
(PID.TID 0000.0001)                 2.151562500000000E+02,      /* I = 77 */
(PID.TID 0000.0001)                 2.179687500000000E+02,      /* I = 78 */
(PID.TID 0000.0001)                 2.207812500000000E+02,      /* I = 79 */
(PID.TID 0000.0001)                 2.235937500000000E+02,      /* I = 80 */
(PID.TID 0000.0001)                 2.264062500000000E+02,      /* I = 81 */
(PID.TID 0000.0001)                 2.292187500000000E+02,      /* I = 82 */
(PID.TID 0000.0001)                 2.320312500000000E+02,      /* I = 83 */
(PID.TID 0000.0001)                 2.348437500000000E+02,      /* I = 84 */
(PID.TID 0000.0001)                 2.376562500000000E+02,      /* I = 85 */
(PID.TID 0000.0001)                 2.404687500000000E+02,      /* I = 86 */
(PID.TID 0000.0001)                 2.432812500000000E+02,      /* I = 87 */
(PID.TID 0000.0001)                 2.460937500000000E+02,      /* I = 88 */
(PID.TID 0000.0001)                 2.489062500000000E+02,      /* I = 89 */
(PID.TID 0000.0001)                 2.517187500000000E+02,      /* I = 90 */
(PID.TID 0000.0001)                 2.545312500000000E+02,      /* I = 91 */
(PID.TID 0000.0001)                 2.573437500000000E+02,      /* I = 92 */
(PID.TID 0000.0001)                 2.601562500000000E+02,      /* I = 93 */
(PID.TID 0000.0001)                 2.629687500000000E+02,      /* I = 94 */
(PID.TID 0000.0001)                 2.657812500000000E+02,      /* I = 95 */
(PID.TID 0000.0001)                 2.685937500000000E+02,      /* I = 96 */
(PID.TID 0000.0001)                 2.714062500000000E+02,      /* I = 97 */
(PID.TID 0000.0001)                 2.742187500000000E+02,      /* I = 98 */
(PID.TID 0000.0001)                 2.770312500000000E+02,      /* I = 99 */
(PID.TID 0000.0001)                 2.798437500000000E+02,      /* I =100 */
(PID.TID 0000.0001)                 2.826562500000000E+02,      /* I =101 */
(PID.TID 0000.0001)                 2.854687500000000E+02,      /* I =102 */
(PID.TID 0000.0001)                 2.882812500000000E+02,      /* I =103 */
(PID.TID 0000.0001)                 2.910937500000000E+02,      /* I =104 */
(PID.TID 0000.0001)                 2.939062500000000E+02,      /* I =105 */
(PID.TID 0000.0001)                 2.967187500000000E+02,      /* I =106 */
(PID.TID 0000.0001)                 2.995312500000000E+02,      /* I =107 */
(PID.TID 0000.0001)                 3.023437500000000E+02,      /* I =108 */
(PID.TID 0000.0001)                 3.051562500000000E+02,      /* I =109 */
(PID.TID 0000.0001)                 3.079687500000000E+02,      /* I =110 */
(PID.TID 0000.0001)                 3.107812500000000E+02,      /* I =111 */
(PID.TID 0000.0001)                 3.135937500000000E+02,      /* I =112 */
(PID.TID 0000.0001)                 3.164062500000000E+02,      /* I =113 */
(PID.TID 0000.0001)                 3.192187500000000E+02,      /* I =114 */
(PID.TID 0000.0001)                 3.220312500000000E+02,      /* I =115 */
(PID.TID 0000.0001)                 3.248437500000000E+02,      /* I =116 */
(PID.TID 0000.0001)                 3.276562500000000E+02,      /* I =117 */
(PID.TID 0000.0001)                 3.304687500000000E+02,      /* I =118 */
(PID.TID 0000.0001)                 3.332812500000000E+02,      /* I =119 */
(PID.TID 0000.0001)                 3.360937500000000E+02,      /* I =120 */
(PID.TID 0000.0001)                 3.389062500000000E+02,      /* I =121 */
(PID.TID 0000.0001)                 3.417187500000000E+02,      /* I =122 */
(PID.TID 0000.0001)                 3.445312500000000E+02,      /* I =123 */
(PID.TID 0000.0001)                 3.473437500000000E+02,      /* I =124 */
(PID.TID 0000.0001)                 3.501562500000000E+02,      /* I =125 */
(PID.TID 0000.0001)                 3.529687500000000E+02,      /* I =126 */
(PID.TID 0000.0001)                 3.557812500000000E+02,      /* I =127 */
(PID.TID 0000.0001)                 3.585937500000000E+02       /* I =128 */
(PID.TID 0000.0001)     ;
(PID.TID 0000.0001) ycoord =   /* P-point Y coord ( m - cartesian, degrees - spherical ) */
(PID.TID 0000.0001)                -3.093750000000000E+01,      /* J =  1 */
(PID.TID 0000.0001)                -2.812500000000000E+01,      /* J =  2 */
(PID.TID 0000.0001)                -2.531250000000000E+01,      /* J =  3 */
(PID.TID 0000.0001)                -2.250000000000000E+01,      /* J =  4 */
(PID.TID 0000.0001)                -1.968750000000000E+01,      /* J =  5 */
(PID.TID 0000.0001)                -1.687500000000000E+01,      /* J =  6 */
(PID.TID 0000.0001)                -1.406250000000000E+01,      /* J =  7 */
(PID.TID 0000.0001)                -1.125000000000000E+01,      /* J =  8 */
(PID.TID 0000.0001)                -8.437500000000000E+00,      /* J =  9 */
(PID.TID 0000.0001)                -5.625000000000000E+00,      /* J = 10 */
(PID.TID 0000.0001)                -2.812500000000000E+00,      /* J = 11 */
(PID.TID 0000.0001)                 0.000000000000000E+00,      /* J = 12 */
(PID.TID 0000.0001)                 2.812500000000000E+00,      /* J = 13 */
(PID.TID 0000.0001)                 5.625000000000000E+00,      /* J = 14 */
(PID.TID 0000.0001)                 8.437500000000000E+00,      /* J = 15 */
(PID.TID 0000.0001)                 1.125000000000000E+01,      /* J = 16 */
(PID.TID 0000.0001)                 1.406250000000000E+01,      /* J = 17 */
(PID.TID 0000.0001)                 1.687500000000000E+01,      /* J = 18 */
(PID.TID 0000.0001)                 1.968750000000000E+01,      /* J = 19 */
(PID.TID 0000.0001)                 2.250000000000000E+01,      /* J = 20 */
(PID.TID 0000.0001)                 2.531250000000000E+01,      /* J = 21 */
(PID.TID 0000.0001)                 2.812500000000000E+01,      /* J = 22 */
(PID.TID 0000.0001)                 3.093750000000000E+01       /* J = 23 */
(PID.TID 0000.0001)     ;
(PID.TID 0000.0001) rcoord =   /* P-point R coordinate (  units of r ) */
(PID.TID 0000.0001)                 9.500000000000000E+04,      /* K =  1 */
(PID.TID 0000.0001)                 7.750000000000000E+04,      /* K =  2 */
(PID.TID 0000.0001)                 5.000000000000000E+04,      /* K =  3 */
(PID.TID 0000.0001)                 2.500000000000000E+04,      /* K =  4 */
(PID.TID 0000.0001)                 7.500000000000000E+03       /* K =  5 */
(PID.TID 0000.0001)     ;
(PID.TID 0000.0001) rF =   /* W-Interf. R coordinate (  units of r ) */
(PID.TID 0000.0001)                 1.000000000000000E+05,      /* K =  1 */
(PID.TID 0000.0001)                 9.000000000000000E+04,      /* K =  2 */
(PID.TID 0000.0001)                 6.500000000000000E+04,      /* K =  3 */
(PID.TID 0000.0001)                 3.500000000000000E+04,      /* K =  4 */
(PID.TID 0000.0001)                 1.500000000000000E+04,      /* K =  5 */
(PID.TID 0000.0001)                 0.000000000000000E+00       /* K =  6 */
(PID.TID 0000.0001)     ;
(PID.TID 0000.0001) dxF =  /* dxF(:,1,:,1) ( m - cartesian, degrees - spherical ) */
(PID.TID 0000.0001)   128 @  2.682002803544621E+05              /* I =  1:128 */
(PID.TID 0000.0001)     ;
(PID.TID 0000.0001) dxF =  /* dxF(1,:,1,:) ( m - cartesian, degrees - spherical ) */
(PID.TID 0000.0001)                 2.682002803544621E+05,      /* J =  1 */
(PID.TID 0000.0001)                 2.757650002472408E+05,      /* J =  2 */
(PID.TID 0000.0001)                 2.826653781002625E+05,      /* J =  3 */
(PID.TID 0000.0001)                 2.888847902988777E+05,      /* J =  4 */
(PID.TID 0000.0001)                 2.944082537343438E+05,      /* J =  5 */
(PID.TID 0000.0001)                 2.992224618994464E+05,      /* J =  6 */
(PID.TID 0000.0001)                 3.033158169450409E+05,      /* J =  7 */
(PID.TID 0000.0001)                 3.066784576202870E+05,      /* J =  8 */
(PID.TID 0000.0001)                 3.093022830292655E+05,      /* J =  9 */
(PID.TID 0000.0001)                 3.111809721467461E+05,      /* J = 10 */
(PID.TID 0000.0001)                 3.123099990460912E+05,      /* J = 11 */
(PID.TID 0000.0001)                 3.126866438026091E+05,      /* J = 12 */
(PID.TID 0000.0001)                 3.123099990460912E+05,      /* J = 13 */
(PID.TID 0000.0001)                 3.111809721467461E+05,      /* J = 14 */
(PID.TID 0000.0001)                 3.093022830292655E+05,      /* J = 15 */
(PID.TID 0000.0001)                 3.066784576202870E+05,      /* J = 16 */
(PID.TID 0000.0001)                 3.033158169450409E+05,      /* J = 17 */
(PID.TID 0000.0001)                 2.992224618994464E+05,      /* J = 18 */
(PID.TID 0000.0001)                 2.944082537343438E+05,      /* J = 19 */
(PID.TID 0000.0001)                 2.888847902988777E+05,      /* J = 20 */
(PID.TID 0000.0001)                 2.826653781002625E+05,      /* J = 21 */
(PID.TID 0000.0001)                 2.757650002472408E+05,      /* J = 22 */
(PID.TID 0000.0001)                 2.682002803544621E+05       /* J = 23 */
(PID.TID 0000.0001)     ;
(PID.TID 0000.0001) dyF =  /* dyF(:,1,:,1) ( m - cartesian, degrees - spherical ) */
(PID.TID 0000.0001)   128 @  3.126866438026091E+05              /* I =  1:128 */
(PID.TID 0000.0001)     ;
(PID.TID 0000.0001) dyF =  /* dyF(1,:,1,:) ( m - cartesian, degrees - spherical ) */
(PID.TID 0000.0001)    23 @  3.126866438026091E+05              /* J =  1: 23 */
(PID.TID 0000.0001)     ;
(PID.TID 0000.0001) dxG =  /* dxG(:,1,:,1) ( m - cartesian, degrees - spherical ) */
(PID.TID 0000.0001)   128 @  2.641744258225996E+05              /* I =  1:128 */
(PID.TID 0000.0001)     ;
(PID.TID 0000.0001) dxG =  /* dxG(1,:,1,:) ( m - cartesian, degrees - spherical ) */
(PID.TID 0000.0001)                 2.641744258225996E+05,      /* J =  1 */
(PID.TID 0000.0001)                 2.720645810660936E+05,      /* J =  2 */
(PID.TID 0000.0001)                 2.792993089037566E+05,      /* J =  3 */
(PID.TID 0000.0001)                 2.858611802425402E+05,      /* J =  4 */
(PID.TID 0000.0001)                 2.917343869596373E+05,      /* J =  5 */
(PID.TID 0000.0001)                 2.969047799856343E+05,      /* J =  6 */
(PID.TID 0000.0001)                 3.013599033908587E+05,      /* J =  7 */
(PID.TID 0000.0001)                 3.050890243928044E+05,      /* J =  8 */
(PID.TID 0000.0001)                 3.080831592123453E+05,      /* J =  9 */
(PID.TID 0000.0001)                 3.103350947164461E+05,      /* J = 10 */
(PID.TID 0000.0001)                 3.118394057952310E+05,      /* J = 11 */
(PID.TID 0000.0001)     2 @  3.125924684315491E+05,             /* J = 12: 13 */
(PID.TID 0000.0001)                 3.118394057952310E+05,      /* J = 14 */
(PID.TID 0000.0001)                 3.103350947164461E+05,      /* J = 15 */
(PID.TID 0000.0001)                 3.080831592123453E+05,      /* J = 16 */
(PID.TID 0000.0001)                 3.050890243928044E+05,      /* J = 17 */
(PID.TID 0000.0001)                 3.013599033908587E+05,      /* J = 18 */
(PID.TID 0000.0001)                 2.969047799856343E+05,      /* J = 19 */
(PID.TID 0000.0001)                 2.917343869596373E+05,      /* J = 20 */
(PID.TID 0000.0001)                 2.858611802425402E+05,      /* J = 21 */
(PID.TID 0000.0001)                 2.792993089037566E+05,      /* J = 22 */
(PID.TID 0000.0001)                 2.720645810660936E+05       /* J = 23 */
(PID.TID 0000.0001)     ;
(PID.TID 0000.0001) dyG =  /* dyG(:,1,:,1) ( m - cartesian, degrees - spherical ) */
(PID.TID 0000.0001)   128 @  3.126866438026091E+05              /* I =  1:128 */
(PID.TID 0000.0001)     ;
(PID.TID 0000.0001) dyG =  /* dyG(1,:,1,:) ( m - cartesian, degrees - spherical ) */
(PID.TID 0000.0001)    23 @  3.126866438026091E+05              /* J =  1: 23 */
(PID.TID 0000.0001)     ;
(PID.TID 0000.0001) dxC =  /* dxC(:,1,:,1) ( m - cartesian, degrees - spherical ) */
(PID.TID 0000.0001)   128 @  2.682002803544621E+05              /* I =  1:128 */
(PID.TID 0000.0001)     ;
(PID.TID 0000.0001) dxC =  /* dxC(1,:,1,:) ( m - cartesian, degrees - spherical ) */
(PID.TID 0000.0001)                 2.682002803544621E+05,      /* J =  1 */
(PID.TID 0000.0001)                 2.757650002472408E+05,      /* J =  2 */
(PID.TID 0000.0001)                 2.826653781002625E+05,      /* J =  3 */
(PID.TID 0000.0001)                 2.888847902988777E+05,      /* J =  4 */
(PID.TID 0000.0001)                 2.944082537343438E+05,      /* J =  5 */
(PID.TID 0000.0001)                 2.992224618994464E+05,      /* J =  6 */
(PID.TID 0000.0001)                 3.033158169450409E+05,      /* J =  7 */
(PID.TID 0000.0001)                 3.066784576202870E+05,      /* J =  8 */
(PID.TID 0000.0001)                 3.093022830292655E+05,      /* J =  9 */
(PID.TID 0000.0001)                 3.111809721467461E+05,      /* J = 10 */
(PID.TID 0000.0001)                 3.123099990460912E+05,      /* J = 11 */
(PID.TID 0000.0001)                 3.126866438026091E+05,      /* J = 12 */
(PID.TID 0000.0001)                 3.123099990460912E+05,      /* J = 13 */
(PID.TID 0000.0001)                 3.111809721467461E+05,      /* J = 14 */
(PID.TID 0000.0001)                 3.093022830292655E+05,      /* J = 15 */
(PID.TID 0000.0001)                 3.066784576202870E+05,      /* J = 16 */
(PID.TID 0000.0001)                 3.033158169450409E+05,      /* J = 17 */
(PID.TID 0000.0001)                 2.992224618994464E+05,      /* J = 18 */
(PID.TID 0000.0001)                 2.944082537343438E+05,      /* J = 19 */
(PID.TID 0000.0001)                 2.888847902988777E+05,      /* J = 20 */
(PID.TID 0000.0001)                 2.826653781002625E+05,      /* J = 21 */
(PID.TID 0000.0001)                 2.757650002472408E+05,      /* J = 22 */
(PID.TID 0000.0001)                 2.682002803544621E+05       /* J = 23 */
(PID.TID 0000.0001)     ;
(PID.TID 0000.0001) dyC =  /* dyC(:,1,:,1) ( m - cartesian, degrees - spherical ) */
(PID.TID 0000.0001)   128 @  3.126866438026091E+05              /* I =  1:128 */
(PID.TID 0000.0001)     ;
(PID.TID 0000.0001) dyC =  /* dyC(1,:,1,:) ( m - cartesian, degrees - spherical ) */
(PID.TID 0000.0001)    23 @  3.126866438026091E+05              /* J =  1: 23 */
(PID.TID 0000.0001)     ;
(PID.TID 0000.0001) dxV =  /* dxV(:,1,:,1) ( m - cartesian, degrees - spherical ) */
(PID.TID 0000.0001)   128 @  2.641744258225996E+05              /* I =  1:128 */
(PID.TID 0000.0001)     ;
(PID.TID 0000.0001) dxV =  /* dxV(1,:,1,:) ( m - cartesian, degrees - spherical ) */
(PID.TID 0000.0001)                 2.641744258225996E+05,      /* J =  1 */
(PID.TID 0000.0001)                 2.720645810660936E+05,      /* J =  2 */
(PID.TID 0000.0001)                 2.792993089037566E+05,      /* J =  3 */
(PID.TID 0000.0001)                 2.858611802425402E+05,      /* J =  4 */
(PID.TID 0000.0001)                 2.917343869596373E+05,      /* J =  5 */
(PID.TID 0000.0001)                 2.969047799856343E+05,      /* J =  6 */
(PID.TID 0000.0001)                 3.013599033908587E+05,      /* J =  7 */
(PID.TID 0000.0001)                 3.050890243928044E+05,      /* J =  8 */
(PID.TID 0000.0001)                 3.080831592123453E+05,      /* J =  9 */
(PID.TID 0000.0001)                 3.103350947164461E+05,      /* J = 10 */
(PID.TID 0000.0001)                 3.118394057952310E+05,      /* J = 11 */
(PID.TID 0000.0001)     2 @  3.125924684315491E+05,             /* J = 12: 13 */
(PID.TID 0000.0001)                 3.118394057952310E+05,      /* J = 14 */
(PID.TID 0000.0001)                 3.103350947164461E+05,      /* J = 15 */
(PID.TID 0000.0001)                 3.080831592123453E+05,      /* J = 16 */
(PID.TID 0000.0001)                 3.050890243928044E+05,      /* J = 17 */
(PID.TID 0000.0001)                 3.013599033908587E+05,      /* J = 18 */
(PID.TID 0000.0001)                 2.969047799856343E+05,      /* J = 19 */
(PID.TID 0000.0001)                 2.917343869596373E+05,      /* J = 20 */
(PID.TID 0000.0001)                 2.858611802425402E+05,      /* J = 21 */
(PID.TID 0000.0001)                 2.792993089037566E+05,      /* J = 22 */
(PID.TID 0000.0001)                 2.720645810660936E+05       /* J = 23 */
(PID.TID 0000.0001)     ;
(PID.TID 0000.0001) dyU =  /* dyU(:,1,:,1) ( m - cartesian, degrees - spherical ) */
(PID.TID 0000.0001)   128 @  3.126866438026091E+05              /* I =  1:128 */
(PID.TID 0000.0001)     ;
(PID.TID 0000.0001) dyU =  /* dyU(1,:,1,:) ( m - cartesian, degrees - spherical ) */
(PID.TID 0000.0001)    23 @  3.126866438026091E+05              /* J =  1: 23 */
(PID.TID 0000.0001)     ;
(PID.TID 0000.0001) rA =  /* rA(:,1,:,1) ( m - cartesian, degrees - spherical ) */
(PID.TID 0000.0001)   128 @  8.385422607492099E+10              /* I =  1:128 */
(PID.TID 0000.0001)     ;
(PID.TID 0000.0001) rA =  /* rA(1,:,1,:) ( m - cartesian, degrees - spherical ) */
(PID.TID 0000.0001)                 8.385422607492099E+10,      /* J =  1 */
(PID.TID 0000.0001)                 8.621937547463150E+10,      /* J =  2 */
(PID.TID 0000.0001)                 8.837681484689815E+10,      /* J =  3 */
(PID.TID 0000.0001)                 9.032134673130380E+10,      /* J =  4 */
(PID.TID 0000.0001)                 9.204828658021814E+10,      /* J =  5 */
(PID.TID 0000.0001)                 9.355347404428311E+10,      /* J =  6 */
(PID.TID 0000.0001)                 9.483328299505893E+10,      /* J =  7 */
(PID.TID 0000.0001)                 9.588463026068498E+10,      /* J =  8 */
(PID.TID 0000.0001)                 9.670498305351135E+10,      /* J =  9 */
(PID.TID 0000.0001)                 9.729236507180571E+10,      /* J = 10 */
(PID.TID 0000.0001)                 9.764536126083737E+10,      /* J = 11 */
(PID.TID 0000.0001)                 9.776312122186816E+10,      /* J = 12 */
(PID.TID 0000.0001)                 9.764536126083739E+10,      /* J = 13 */
(PID.TID 0000.0001)                 9.729236507180573E+10,      /* J = 14 */
(PID.TID 0000.0001)                 9.670498305351135E+10,      /* J = 15 */
(PID.TID 0000.0001)                 9.588463026068500E+10,      /* J = 16 */
(PID.TID 0000.0001)                 9.483328299505898E+10,      /* J = 17 */
(PID.TID 0000.0001)                 9.355347404428320E+10,      /* J = 18 */
(PID.TID 0000.0001)                 9.204828658021820E+10,      /* J = 19 */
(PID.TID 0000.0001)                 9.032134673130377E+10,      /* J = 20 */
(PID.TID 0000.0001)                 8.837681484689807E+10,      /* J = 21 */
(PID.TID 0000.0001)                 8.621937547463145E+10,      /* J = 22 */
(PID.TID 0000.0001)                 8.385422607492096E+10       /* J = 23 */
(PID.TID 0000.0001)     ;
(PID.TID 0000.0001) rAw =  /* rAw(:,1,:,1) ( m - cartesian, degrees - spherical ) */
(PID.TID 0000.0001)   128 @  8.385422607492099E+10              /* I =  1:128 */
(PID.TID 0000.0001)     ;
(PID.TID 0000.0001) rAw =  /* rAw(1,:,1,:) ( m - cartesian, degrees - spherical ) */
(PID.TID 0000.0001)                 8.385422607492099E+10,      /* J =  1 */
(PID.TID 0000.0001)                 8.621937547463150E+10,      /* J =  2 */
(PID.TID 0000.0001)                 8.837681484689815E+10,      /* J =  3 */
(PID.TID 0000.0001)                 9.032134673130380E+10,      /* J =  4 */
(PID.TID 0000.0001)                 9.204828658021814E+10,      /* J =  5 */
(PID.TID 0000.0001)                 9.355347404428311E+10,      /* J =  6 */
(PID.TID 0000.0001)                 9.483328299505893E+10,      /* J =  7 */
(PID.TID 0000.0001)                 9.588463026068498E+10,      /* J =  8 */
(PID.TID 0000.0001)                 9.670498305351135E+10,      /* J =  9 */
(PID.TID 0000.0001)                 9.729236507180571E+10,      /* J = 10 */
(PID.TID 0000.0001)                 9.764536126083737E+10,      /* J = 11 */
(PID.TID 0000.0001)                 9.776312122186816E+10,      /* J = 12 */
(PID.TID 0000.0001)                 9.764536126083739E+10,      /* J = 13 */
(PID.TID 0000.0001)                 9.729236507180573E+10,      /* J = 14 */
(PID.TID 0000.0001)                 9.670498305351135E+10,      /* J = 15 */
(PID.TID 0000.0001)                 9.588463026068500E+10,      /* J = 16 */
(PID.TID 0000.0001)                 9.483328299505898E+10,      /* J = 17 */
(PID.TID 0000.0001)                 9.355347404428320E+10,      /* J = 18 */
(PID.TID 0000.0001)                 9.204828658021820E+10,      /* J = 19 */
(PID.TID 0000.0001)                 9.032134673130377E+10,      /* J = 20 */
(PID.TID 0000.0001)                 8.837681484689807E+10,      /* J = 21 */
(PID.TID 0000.0001)                 8.621937547463145E+10,      /* J = 22 */
(PID.TID 0000.0001)                 8.385422607492096E+10       /* J = 23 */
(PID.TID 0000.0001)     ;
(PID.TID 0000.0001) rAs =  /* rAs(:,1,:,1) ( m - cartesian, degrees - spherical ) */
(PID.TID 0000.0001)   128 @  8.259552151423448E+10              /* I =  1:128 */
(PID.TID 0000.0001)     ;
(PID.TID 0000.0001) rAs =  /* rAs(1,:,1,:) ( m - cartesian, degrees - spherical ) */
(PID.TID 0000.0001)                 8.259552151423448E+10,      /* J =  1 */
(PID.TID 0000.0001)                 8.506241998533156E+10,      /* J =  2 */
(PID.TID 0000.0001)                 8.732439563609563E+10,      /* J =  3 */
(PID.TID 0000.0001)                 8.937599916905870E+10,      /* J =  4 */
(PID.TID 0000.0001)                 9.121228809161061E+10,      /* J =  5 */
(PID.TID 0000.0001)                 9.282883862289702E+10,      /* J =  6 */
(PID.TID 0000.0001)                 9.422175635109479E+10,      /* J =  7 */
(PID.TID 0000.0001)                 9.538768561539166E+10,      /* J =  8 */
(PID.TID 0000.0001)                 9.632381759006653E+10,      /* J =  9 */
(PID.TID 0000.0001)                 9.702789705119698E+10,      /* J = 10 */
(PID.TID 0000.0001)                 9.749822780969104E+10,      /* J = 11 */
(PID.TID 0000.0001)     2 @  9.773367679755542E+10,             /* J = 12: 13 */
(PID.TID 0000.0001)                 9.749822780969106E+10,      /* J = 14 */
(PID.TID 0000.0001)                 9.702789705119699E+10,      /* J = 15 */
(PID.TID 0000.0001)                 9.632381759006651E+10,      /* J = 16 */
(PID.TID 0000.0001)                 9.538768561539162E+10,      /* J = 17 */
(PID.TID 0000.0001)                 9.422175635109473E+10,      /* J = 18 */
(PID.TID 0000.0001)                 9.282883862289699E+10,      /* J = 19 */
(PID.TID 0000.0001)                 9.121228809161069E+10,      /* J = 20 */
(PID.TID 0000.0001)                 8.937599916905876E+10,      /* J = 21 */
(PID.TID 0000.0001)                 8.732439563609566E+10,      /* J = 22 */
(PID.TID 0000.0001)                 8.506241998533160E+10       /* J = 23 */
(PID.TID 0000.0001)     ;
(PID.TID 0000.0001) 
(PID.TID 0000.0001)  MDSREADFIELD: opening global file: pickup.0000051840
(PID.TID 0000.0001)  MDSREADFIELD: opening global file: pickup.0000051840
(PID.TID 0000.0001)  MDSREADFIELD: opening global file: pickup.0000051840
(PID.TID 0000.0001)  MDSREADFIELD: opening global file: pickup.0000051840
(PID.TID 0000.0001)  MDSREADFIELD: opening global file: pickup.0000051840
(PID.TID 0000.0001)  MDSREADFIELD: opening global file: pickup.0000051840
(PID.TID 0000.0001)  MDSREADFIELD: opening global file: pickup.0000051840
(PID.TID 0000.0001)  MDSREADFIELD: opening global file: pickup.0000051840
(PID.TID 0000.0001)  MDSREADFIELD: opening global file: pickup.0000051840
(PID.TID 0000.0001)  MDSREADFIELD: opening global file: pickup.0000051840
(PID.TID 0000.0001)  MDSREADFIELD: opening global file: pickup.0000051840
(PID.TID 0000.0001)  MDSREADFIELD: opening global file: pickup.0000051840
(PID.TID 0000.0001)  MDSREADFIELD: opening global file: pickup.0000051840
(PID.TID 0000.0001) // =======================================================
(PID.TID 0000.0001) // Model current state
(PID.TID 0000.0001) // =======================================================
(PID.TID 0000.0001) 
(PID.TID 0000.0001) // =======================================================
(PID.TID 0000.0001) // Begin MONITOR dynamic field statistics
(PID.TID 0000.0001) // =======================================================
(PID.TID 0000.0001) %MON time_tsnumber                =                 51840
(PID.TID 0000.0001) %MON time_secondsf                =   3.1104000000000E+07
(PID.TID 0000.0001) %MON dynstat_eta_max              =   5.6007648328942E+02
(PID.TID 0000.0001) %MON dynstat_eta_min              =  -1.1900896404607E+03
(PID.TID 0000.0001) %MON dynstat_eta_mean             =  -4.2602583538605E-13
(PID.TID 0000.0001) %MON dynstat_eta_sd               =   3.1717503159601E+02
(PID.TID 0000.0001) %MON dynstat_eta_del2             =   2.1277795526501E+01
(PID.TID 0000.0001) %MON dynstat_uvel_max             =   6.8752013681252E+01
(PID.TID 0000.0001) %MON dynstat_uvel_min             =  -5.3327593619244E+01
(PID.TID 0000.0001) %MON dynstat_uvel_mean            =   9.8880384871282E+00
(PID.TID 0000.0001) %MON dynstat_uvel_sd              =   2.0918333973709E+01
(PID.TID 0000.0001) %MON dynstat_uvel_del2            =   1.5799461509292E+00
(PID.TID 0000.0001) %MON dynstat_vvel_max             =   2.6953670057328E+01
(PID.TID 0000.0001) %MON dynstat_vvel_min             =  -3.7046687103927E+01
(PID.TID 0000.0001) %MON dynstat_vvel_mean            =   1.2534447075105E-02
(PID.TID 0000.0001) %MON dynstat_vvel_sd              =   5.9945447350110E+00
(PID.TID 0000.0001) %MON dynstat_vvel_del2            =   8.6427732073631E-01
(PID.TID 0000.0001) %MON dynstat_wvel_max             =   1.5819787700343E+00
(PID.TID 0000.0001) %MON dynstat_wvel_min             =  -2.8811147246139E+00
(PID.TID 0000.0001) %MON dynstat_wvel_mean            =   3.4503992766397E-18
(PID.TID 0000.0001) %MON dynstat_wvel_sd              =   1.6811964488320E-01
(PID.TID 0000.0001) %MON dynstat_wvel_del2            =   4.0650285486787E-02
(PID.TID 0000.0001) %MON dynstat_theta_max            =   4.0516279556456E+02
(PID.TID 0000.0001) %MON dynstat_theta_min            =   2.7722313940156E+02
(PID.TID 0000.0001) %MON dynstat_theta_mean           =   3.1126258044281E+02
(PID.TID 0000.0001) %MON dynstat_theta_sd             =   3.5663860069000E+01
(PID.TID 0000.0001) %MON dynstat_theta_del2           =   3.6908009875551E-01
(PID.TID 0000.0001) %MON dynstat_salt_max             =   1.2378188477450E+01
(PID.TID 0000.0001) %MON dynstat_salt_min             =  -1.7986661948934E-01
(PID.TID 0000.0001) %MON dynstat_salt_mean            =   8.5450715386372E-01
(PID.TID 0000.0001) %MON dynstat_salt_sd              =   1.2845492720071E+00
(PID.TID 0000.0001) %MON dynstat_salt_del2            =   6.0072414886663E-02
(PID.TID 0000.0001) %MON advcfl_uvel_max              =   1.3208417384889E-01
(PID.TID 0000.0001) %MON advcfl_vvel_max              =   7.1087181697432E-02
(PID.TID 0000.0001) %MON advcfl_wvel_max              =   6.2860684900668E-02
(PID.TID 0000.0001) %MON advcfl_W_hf_max              =   1.7929200371546E-01
(PID.TID 0000.0001) %MON pe_b_mean                    =   5.0300000333966E-01
(PID.TID 0000.0001) %MON ke_max                       =   2.3520479470727E+03
(PID.TID 0000.0001) %MON ke_mean                      =   2.8496923866075E+02
(PID.TID 0000.0001) %MON ke_vol                       =   2.7279762099329E+19
(PID.TID 0000.0001) %MON vort_r_min                   =  -1.7480857442499E-04
(PID.TID 0000.0001) %MON vort_r_max                   =   1.4052445827260E-04
(PID.TID 0000.0001) %MON vort_a_mean                  =  -2.9752610458882E-06
(PID.TID 0000.0001) %MON vort_a_sd                    =   6.0434213775829E-05
(PID.TID 0000.0001) %MON vort_p_mean                  =  -3.0340712230262E-06
(PID.TID 0000.0001) %MON vort_p_sd                    =   6.3330277890428E-05
(PID.TID 0000.0001) %MON surfExpan_theta_mean         =  -7.1066592942206E-04
(PID.TID 0000.0001) %MON surfExpan_salt_mean          =   1.1584565687835E-04
(PID.TID 0000.0001) %MON surfExpan_Heat_mean          =  -7.1674639344729E-02
(PID.TID 0000.0001) %MON En_Budget_T2PE_mean          =   1.4765577129290E+00
(PID.TID 0000.0001) // =======================================================
(PID.TID 0000.0001) // End MONITOR dynamic field statistics
(PID.TID 0000.0001) // =======================================================
 cg2d: Sum(rhs),rhsMax =   3.57528051608824E-09  3.38111203147019E+03
(PID.TID 0000.0001)                    cg2d_init_res =    8.32740541512924E+02
(PID.TID 0000.0001)                       cg2d_iters =    15
(PID.TID 0000.0001)                         cg2d_res =    1.19889074291453E-11
(PID.TID 0000.0001) // =======================================================
(PID.TID 0000.0001) // Begin MONITOR dynamic field statistics
(PID.TID 0000.0001) // =======================================================
(PID.TID 0000.0001) %MON time_tsnumber                =                 51841
(PID.TID 0000.0001) %MON time_secondsf                =   3.1104600000000E+07
(PID.TID 0000.0001) %MON dynstat_eta_max              =   5.6097781853150E+02
(PID.TID 0000.0001) %MON dynstat_eta_min              =  -1.1796438387367E+03
(PID.TID 0000.0001) %MON dynstat_eta_mean             =  -3.1520071889524E-13
(PID.TID 0000.0001) %MON dynstat_eta_sd               =   3.1736151479887E+02
(PID.TID 0000.0001) %MON dynstat_eta_del2             =   2.1266612054181E+01
(PID.TID 0000.0001) %MON dynstat_uvel_max             =   6.8681641385943E+01
(PID.TID 0000.0001) %MON dynstat_uvel_min             =  -5.3351380623622E+01
(PID.TID 0000.0001) %MON dynstat_uvel_mean            =   9.8879989767095E+00
(PID.TID 0000.0001) %MON dynstat_uvel_sd              =   2.0918723275468E+01
(PID.TID 0000.0001) %MON dynstat_uvel_del2            =   1.5799464924708E+00
(PID.TID 0000.0001) %MON dynstat_vvel_max             =   2.7216575802550E+01
(PID.TID 0000.0001) %MON dynstat_vvel_min             =  -3.6875690236841E+01
(PID.TID 0000.0001) %MON dynstat_vvel_mean            =   1.2703659445828E-02
(PID.TID 0000.0001) %MON dynstat_vvel_sd              =   5.9913263599157E+00
(PID.TID 0000.0001) %MON dynstat_vvel_del2            =   8.6367230254689E-01
(PID.TID 0000.0001) %MON dynstat_wvel_max             =   1.5566785050880E+00
(PID.TID 0000.0001) %MON dynstat_wvel_min             =  -2.9071575328274E+00
(PID.TID 0000.0001) %MON dynstat_wvel_mean            =  -1.9943231781363E-18
(PID.TID 0000.0001) %MON dynstat_wvel_sd              =   1.6773144396676E-01
(PID.TID 0000.0001) %MON dynstat_wvel_del2            =   4.0575148698229E-02
(PID.TID 0000.0001) %MON dynstat_theta_max            =   4.0509826451358E+02
(PID.TID 0000.0001) %MON dynstat_theta_min            =   2.7722587523018E+02
(PID.TID 0000.0001) %MON dynstat_theta_mean           =   3.1126272221378E+02
(PID.TID 0000.0001) %MON dynstat_theta_sd             =   3.5663720506320E+01
(PID.TID 0000.0001) %MON dynstat_theta_del2           =   3.6896843823631E-01
(PID.TID 0000.0001) %MON dynstat_salt_max             =   1.2381383197592E+01
(PID.TID 0000.0001) %MON dynstat_salt_min             =  -1.7986099908599E-01
(PID.TID 0000.0001) %MON dynstat_salt_mean            =   8.5445971529747E-01
(PID.TID 0000.0001) %MON dynstat_salt_sd              =   1.2845047202630E+00
(PID.TID 0000.0001) %MON dynstat_salt_del2            =   6.0035260563083E-02
(PID.TID 0000.0001) %MON advcfl_uvel_max              =   1.3179003852042E-01
(PID.TID 0000.0001) %MON advcfl_vvel_max              =   7.0759063684447E-02
(PID.TID 0000.0001) %MON advcfl_wvel_max              =   6.3428891625324E-02
(PID.TID 0000.0001) %MON advcfl_W_hf_max              =   1.7895703687145E-01
(PID.TID 0000.0001) %MON pe_b_mean                    =   5.0359165537720E-01
(PID.TID 0000.0001) %MON ke_max                       =   2.3619865426862E+03
(PID.TID 0000.0001) %MON ke_mean                      =   2.8495845834956E+02
(PID.TID 0000.0001) %MON ke_vol                       =   2.7279762099329E+19
(PID.TID 0000.0001) %MON vort_r_min                   =  -1.7839036991984E-04
(PID.TID 0000.0001) %MON vort_r_max                   =   1.4046654686901E-04
(PID.TID 0000.0001) %MON vort_a_mean                  =  -2.9752618796665E-06
(PID.TID 0000.0001) %MON vort_a_sd                    =   6.0435388177735E-05
(PID.TID 0000.0001) %MON vort_p_mean                  =  -3.0340720732854E-06
(PID.TID 0000.0001) %MON vort_p_sd                    =   6.3331351890631E-05
(PID.TID 0000.0001) %MON surfExpan_theta_mean         =  -6.6144567136476E-04
(PID.TID 0000.0001) %MON surfExpan_salt_mean          =   1.0718554958867E-04
(PID.TID 0000.0001) %MON surfExpan_Heat_mean          =  -6.6710500642350E-02
(PID.TID 0000.0001) %MON En_Budget_T2PE_mean          =   1.4619162547282E+00
(PID.TID 0000.0001) // =======================================================
(PID.TID 0000.0001) // End MONITOR dynamic field statistics
(PID.TID 0000.0001) // =======================================================
 cg2d: Sum(rhs),rhsMax =   4.40644498667098E-09  3.37356106823233E+03
(PID.TID 0000.0001)                    cg2d_init_res =    8.32275935025472E+02
(PID.TID 0000.0001)                       cg2d_iters =    15
(PID.TID 0000.0001)                         cg2d_res =    1.19967646350697E-11
(PID.TID 0000.0001) // =======================================================
(PID.TID 0000.0001) // Begin MONITOR dynamic field statistics
(PID.TID 0000.0001) // =======================================================
(PID.TID 0000.0001) %MON time_tsnumber                =                 51842
(PID.TID 0000.0001) %MON time_secondsf                =   3.1105200000000E+07
(PID.TID 0000.0001) %MON dynstat_eta_max              =   5.6164601795740E+02
(PID.TID 0000.0001) %MON dynstat_eta_min              =  -1.1650782388305E+03
(PID.TID 0000.0001) %MON dynstat_eta_mean             =  -6.1284052012171E-13
(PID.TID 0000.0001) %MON dynstat_eta_sd               =   3.1754397225334E+02
(PID.TID 0000.0001) %MON dynstat_eta_del2             =   2.1230987683886E+01
(PID.TID 0000.0001) %MON dynstat_uvel_max             =   6.8942654168976E+01
(PID.TID 0000.0001) %MON dynstat_uvel_min             =  -5.3623657491969E+01
(PID.TID 0000.0001) %MON dynstat_uvel_mean            =   9.8879559725636E+00
(PID.TID 0000.0001) %MON dynstat_uvel_sd              =   2.0919093915056E+01
(PID.TID 0000.0001) %MON dynstat_uvel_del2            =   1.5797980177992E+00
(PID.TID 0000.0001) %MON dynstat_vvel_max             =   2.7525746912265E+01
(PID.TID 0000.0001) %MON dynstat_vvel_min             =  -3.6725366343632E+01
(PID.TID 0000.0001) %MON dynstat_vvel_mean            =   1.2871637574937E-02
(PID.TID 0000.0001) %MON dynstat_vvel_sd              =   5.9880470712098E+00
(PID.TID 0000.0001) %MON dynstat_vvel_del2            =   8.6299728366155E-01
(PID.TID 0000.0001) %MON dynstat_wvel_max             =   1.5259760410195E+00
(PID.TID 0000.0001) %MON dynstat_wvel_min             =  -2.9310060487698E+00
(PID.TID 0000.0001) %MON dynstat_wvel_mean            =   5.4274164068025E-18
(PID.TID 0000.0001) %MON dynstat_wvel_sd              =   1.6733172217280E-01
(PID.TID 0000.0001) %MON dynstat_wvel_del2            =   4.0502447076579E-02
(PID.TID 0000.0001) %MON dynstat_theta_max            =   4.0502825472948E+02
(PID.TID 0000.0001) %MON dynstat_theta_min            =   2.7722875050221E+02
(PID.TID 0000.0001) %MON dynstat_theta_mean           =   3.1126285475582E+02
(PID.TID 0000.0001) %MON dynstat_theta_sd             =   3.5663589608941E+01
(PID.TID 0000.0001) %MON dynstat_theta_del2           =   3.6891543627467E-01
(PID.TID 0000.0001) %MON dynstat_salt_max             =   1.2382007464561E+01
(PID.TID 0000.0001) %MON dynstat_salt_min             =  -1.7947489401248E-01
(PID.TID 0000.0001) %MON dynstat_salt_mean            =   8.5441567638181E-01
(PID.TID 0000.0001) %MON dynstat_salt_sd              =   1.2844651144642E+00
(PID.TID 0000.0001) %MON dynstat_salt_del2            =   6.0013612567989E-02
(PID.TID 0000.0001) %MON advcfl_uvel_max              =   1.3229088392883E-01
(PID.TID 0000.0001) %MON advcfl_vvel_max              =   7.0470614088939E-02
(PID.TID 0000.0001) %MON advcfl_wvel_max              =   6.3949222882251E-02
(PID.TID 0000.0001) %MON advcfl_W_hf_max              =   1.7850682579503E-01
(PID.TID 0000.0001) %MON pe_b_mean                    =   5.0417087157217E-01
(PID.TID 0000.0001) %MON ke_max                       =   2.3699221846046E+03
(PID.TID 0000.0001) %MON ke_mean                      =   2.8494691262904E+02
(PID.TID 0000.0001) %MON ke_vol                       =   2.7279762099329E+19
(PID.TID 0000.0001) %MON vort_r_min                   =  -1.8148738746524E-04
(PID.TID 0000.0001) %MON vort_r_max                   =   1.4157832677817E-04
(PID.TID 0000.0001) %MON vort_a_mean                  =  -2.9752627167976E-06
(PID.TID 0000.0001) %MON vort_a_sd                    =   6.0436350524932E-05
(PID.TID 0000.0001) %MON vort_p_mean                  =  -3.0340729269634E-06
(PID.TID 0000.0001) %MON vort_p_sd                    =   6.3332240596835E-05
(PID.TID 0000.0001) %MON surfExpan_theta_mean         =  -6.1692481794826E-04
(PID.TID 0000.0001) %MON surfExpan_salt_mean          =   9.6051795472586E-05
(PID.TID 0000.0001) %MON surfExpan_Heat_mean          =  -6.2220323218830E-02
(PID.TID 0000.0001) %MON En_Budget_T2PE_mean          =   1.4475220625864E+00
(PID.TID 0000.0001) // =======================================================
(PID.TID 0000.0001) // End MONITOR dynamic field statistics
(PID.TID 0000.0001) // =======================================================
 cg2d: Sum(rhs),rhsMax =   2.66470578935696E-09  3.38752505497239E+03
(PID.TID 0000.0001)                    cg2d_init_res =    8.31597187502599E+02
(PID.TID 0000.0001)                       cg2d_iters =    15
(PID.TID 0000.0001)                         cg2d_res =    1.20041146252362E-11
(PID.TID 0000.0001) // =======================================================
(PID.TID 0000.0001) // Begin MONITOR dynamic field statistics
(PID.TID 0000.0001) // =======================================================
(PID.TID 0000.0001) %MON time_tsnumber                =                 51843
(PID.TID 0000.0001) %MON time_secondsf                =   3.1105800000000E+07
(PID.TID 0000.0001) %MON dynstat_eta_max              =   5.6216807270670E+02
(PID.TID 0000.0001) %MON dynstat_eta_min              =  -1.1780655967585E+03
(PID.TID 0000.0001) %MON dynstat_eta_mean             =  -6.2031473646596E-13
(PID.TID 0000.0001) %MON dynstat_eta_sd               =   3.1772235732120E+02
(PID.TID 0000.0001) %MON dynstat_eta_del2             =   2.1202625494105E+01
(PID.TID 0000.0001) %MON dynstat_uvel_max             =   6.9165157961229E+01
(PID.TID 0000.0001) %MON dynstat_uvel_min             =  -5.3864416711747E+01
(PID.TID 0000.0001) %MON dynstat_uvel_mean            =   9.8879095567929E+00
(PID.TID 0000.0001) %MON dynstat_uvel_sd              =   2.0919445479805E+01
(PID.TID 0000.0001) %MON dynstat_uvel_del2            =   1.5796922325789E+00
(PID.TID 0000.0001) %MON dynstat_vvel_max             =   2.7780797078082E+01
(PID.TID 0000.0001) %MON dynstat_vvel_min             =  -3.6790737083897E+01
(PID.TID 0000.0001) %MON dynstat_vvel_mean            =   1.3038732583030E-02
(PID.TID 0000.0001) %MON dynstat_vvel_sd              =   5.9847126720403E+00
(PID.TID 0000.0001) %MON dynstat_vvel_del2            =   8.6236629348757E-01
(PID.TID 0000.0001) %MON dynstat_wvel_max             =   1.4901327091745E+00
(PID.TID 0000.0001) %MON dynstat_wvel_min             =  -2.9527072905843E+00
(PID.TID 0000.0001) %MON dynstat_wvel_mean            =   2.7176883941293E-18
(PID.TID 0000.0001) %MON dynstat_wvel_sd              =   1.6692109692167E-01
(PID.TID 0000.0001) %MON dynstat_wvel_del2            =   4.0417716639170E-02
(PID.TID 0000.0001) %MON dynstat_theta_max            =   4.0495286011729E+02
(PID.TID 0000.0001) %MON dynstat_theta_min            =   2.7723176201340E+02
(PID.TID 0000.0001) %MON dynstat_theta_mean           =   3.1126298248588E+02
(PID.TID 0000.0001) %MON dynstat_theta_sd             =   3.5663461364963E+01
(PID.TID 0000.0001) %MON dynstat_theta_del2           =   3.6883337708475E-01
(PID.TID 0000.0001) %MON dynstat_salt_max             =   1.2380076937224E+01
(PID.TID 0000.0001) %MON dynstat_salt_min             =  -1.7869979592844E-01
(PID.TID 0000.0001) %MON dynstat_salt_mean            =   8.5437386228222E-01
(PID.TID 0000.0001) %MON dynstat_salt_sd              =   1.2844323590317E+00
(PID.TID 0000.0001) %MON dynstat_salt_del2            =   5.9998213219601E-02
(PID.TID 0000.0001) %MON advcfl_uvel_max              =   1.3271783620836E-01
(PID.TID 0000.0001) %MON advcfl_vvel_max              =   7.0596050991783E-02
(PID.TID 0000.0001) %MON advcfl_wvel_max              =   6.4422704521839E-02
(PID.TID 0000.0001) %MON advcfl_W_hf_max              =   1.7795002658279E-01
(PID.TID 0000.0001) %MON pe_b_mean                    =   5.0473748170870E-01
(PID.TID 0000.0001) %MON ke_max                       =   2.3758611252812E+03
(PID.TID 0000.0001) %MON ke_mean                      =   2.8493462761395E+02
(PID.TID 0000.0001) %MON ke_vol                       =   2.7279762099329E+19
(PID.TID 0000.0001) %MON vort_r_min                   =  -1.8407984538749E-04
(PID.TID 0000.0001) %MON vort_r_max                   =   1.4410997814987E-04
(PID.TID 0000.0001) %MON vort_a_mean                  =  -2.9752635555844E-06
(PID.TID 0000.0001) %MON vort_a_sd                    =   6.0437097984603E-05
(PID.TID 0000.0001) %MON vort_p_mean                  =  -3.0340737823301E-06
(PID.TID 0000.0001) %MON vort_p_sd                    =   6.3332942501349E-05
(PID.TID 0000.0001) %MON surfExpan_theta_mean         =  -5.7745254260745E-04
(PID.TID 0000.0001) %MON surfExpan_salt_mean          =   8.4584606884693E-05
(PID.TID 0000.0001) %MON surfExpan_Heat_mean          =  -5.8239323170795E-02
(PID.TID 0000.0001) %MON En_Budget_T2PE_mean          =   1.4334309392815E+00
(PID.TID 0000.0001) // =======================================================
(PID.TID 0000.0001) // End MONITOR dynamic field statistics
(PID.TID 0000.0001) // =======================================================
 cg2d: Sum(rhs),rhsMax =   3.62626906280639E-09  3.39814883134588E+03
(PID.TID 0000.0001)                    cg2d_init_res =    8.30374159786457E+02
(PID.TID 0000.0001)                       cg2d_iters =    15
(PID.TID 0000.0001)                         cg2d_res =    1.20022461098957E-11
(PID.TID 0000.0001) // =======================================================
(PID.TID 0000.0001) // Begin MONITOR dynamic field statistics
(PID.TID 0000.0001) // =======================================================
(PID.TID 0000.0001) %MON time_tsnumber                =                 51844
(PID.TID 0000.0001) %MON time_secondsf                =   3.1106400000000E+07
(PID.TID 0000.0001) %MON dynstat_eta_max              =   5.6228597674661E+02
(PID.TID 0000.0001) %MON dynstat_eta_min              =  -1.2030748704309E+03
(PID.TID 0000.0001) %MON dynstat_eta_mean             =  -4.4578324169288E-13
(PID.TID 0000.0001) %MON dynstat_eta_sd               =   3.1789657690172E+02
(PID.TID 0000.0001) %MON dynstat_eta_del2             =   2.1184379785328E+01
(PID.TID 0000.0001) %MON dynstat_uvel_max             =   6.9348934300623E+01
(PID.TID 0000.0001) %MON dynstat_uvel_min             =  -5.4075908799011E+01
(PID.TID 0000.0001) %MON dynstat_uvel_mean            =   9.8878599096321E+00
(PID.TID 0000.0001) %MON dynstat_uvel_sd              =   2.0919777742747E+01
(PID.TID 0000.0001) %MON dynstat_uvel_del2            =   1.5794783766321E+00
(PID.TID 0000.0001) %MON dynstat_vvel_max             =   2.7982065066531E+01
(PID.TID 0000.0001) %MON dynstat_vvel_min             =  -3.6841657765926E+01
(PID.TID 0000.0001) %MON dynstat_vvel_mean            =   1.3205106084027E-02
(PID.TID 0000.0001) %MON dynstat_vvel_sd              =   5.9813292283936E+00
(PID.TID 0000.0001) %MON dynstat_vvel_del2            =   8.6187304311704E-01
(PID.TID 0000.0001) %MON dynstat_wvel_max             =   1.4494933914839E+00
(PID.TID 0000.0001) %MON dynstat_wvel_min             =  -2.9723016212871E+00
(PID.TID 0000.0001) %MON dynstat_wvel_mean            =  -5.6684818582617E-20
(PID.TID 0000.0001) %MON dynstat_wvel_sd              =   1.6650266901526E-01
(PID.TID 0000.0001) %MON dynstat_wvel_del2            =   4.0338893606746E-02
(PID.TID 0000.0001) %MON dynstat_theta_max            =   4.0492521825223E+02
(PID.TID 0000.0001) %MON dynstat_theta_min            =   2.7723073692483E+02
(PID.TID 0000.0001) %MON dynstat_theta_mean           =   3.1126310320301E+02
(PID.TID 0000.0001) %MON dynstat_theta_sd             =   3.5663338504903E+01
(PID.TID 0000.0001) %MON dynstat_theta_del2           =   3.6874576581625E-01
(PID.TID 0000.0001) %MON dynstat_salt_max             =   1.2375618303602E+01
(PID.TID 0000.0001) %MON dynstat_salt_min             =  -1.7753016580127E-01
(PID.TID 0000.0001) %MON dynstat_salt_mean            =   8.5433540229282E-01
(PID.TID 0000.0001) %MON dynstat_salt_sd              =   1.2844068982540E+00
(PID.TID 0000.0001) %MON dynstat_salt_del2            =   5.9976356637106E-02
(PID.TID 0000.0001) %MON advcfl_uvel_max              =   1.3307047616220E-01
(PID.TID 0000.0001) %MON advcfl_vvel_max              =   7.0693760343375E-02
(PID.TID 0000.0001) %MON advcfl_wvel_max              =   6.4850217191720E-02
(PID.TID 0000.0001) %MON advcfl_W_hf_max              =   1.7729522264218E-01
(PID.TID 0000.0001) %MON pe_b_mean                    =   5.0529116802918E-01
(PID.TID 0000.0001) %MON ke_max                       =   2.3798257389470E+03
(PID.TID 0000.0001) %MON ke_mean                      =   2.8492163571885E+02
(PID.TID 0000.0001) %MON ke_vol                       =   2.7279762099329E+19
(PID.TID 0000.0001) %MON vort_r_min                   =  -1.8615475360551E-04
(PID.TID 0000.0001) %MON vort_r_max                   =   1.4644416279381E-04
(PID.TID 0000.0001) %MON vort_a_mean                  =  -2.9752643943966E-06
(PID.TID 0000.0001) %MON vort_a_sd                    =   6.0437629291696E-05
(PID.TID 0000.0001) %MON vort_p_mean                  =  -3.0340746377226E-06
(PID.TID 0000.0001) %MON vort_p_sd                    =   6.3333457585264E-05
(PID.TID 0000.0001) %MON surfExpan_theta_mean         =  -5.4313984776484E-04
(PID.TID 0000.0001) %MON surfExpan_salt_mean          =   7.2898156869229E-05
(PID.TID 0000.0001) %MON surfExpan_Heat_mean          =  -5.4778695714280E-02
(PID.TID 0000.0001) %MON En_Budget_T2PE_mean          =   1.4197460790516E+00
(PID.TID 0000.0001) // =======================================================
(PID.TID 0000.0001) // End MONITOR dynamic field statistics
(PID.TID 0000.0001) // =======================================================
 cg2d: Sum(rhs),rhsMax =   4.17708179156762E-09  3.40498104766013E+03
(PID.TID 0000.0001)                    cg2d_init_res =    8.29149169929967E+02
(PID.TID 0000.0001)                       cg2d_iters =    15
(PID.TID 0000.0001)                         cg2d_res =    1.19960779747397E-11
(PID.TID 0000.0001) // =======================================================
(PID.TID 0000.0001) // Begin MONITOR dynamic field statistics
(PID.TID 0000.0001) // =======================================================
(PID.TID 0000.0001) %MON time_tsnumber                =                 51845
(PID.TID 0000.0001) %MON time_secondsf                =   3.1107000000000E+07
(PID.TID 0000.0001) %MON dynstat_eta_max              =   5.6207564222714E+02
(PID.TID 0000.0001) %MON dynstat_eta_min              =  -1.2249788347442E+03
(PID.TID 0000.0001) %MON dynstat_eta_mean             =  -6.2017577126948E-13
(PID.TID 0000.0001) %MON dynstat_eta_sd               =   3.1806646816632E+02
(PID.TID 0000.0001) %MON dynstat_eta_del2             =   2.1171978814681E+01
(PID.TID 0000.0001) %MON dynstat_uvel_max             =   6.9494133240809E+01
(PID.TID 0000.0001) %MON dynstat_uvel_min             =  -5.4260470849495E+01
(PID.TID 0000.0001) %MON dynstat_uvel_mean            =   9.8878072767851E+00
(PID.TID 0000.0001) %MON dynstat_uvel_sd              =   2.0920090880773E+01
(PID.TID 0000.0001) %MON dynstat_uvel_del2            =   1.5795761830937E+00
(PID.TID 0000.0001) %MON dynstat_vvel_max             =   2.8128821010038E+01
(PID.TID 0000.0001) %MON dynstat_vvel_min             =  -3.6877972112966E+01
(PID.TID 0000.0001) %MON dynstat_vvel_mean            =   1.3370990912720E-02
(PID.TID 0000.0001) %MON dynstat_vvel_sd              =   5.9779017950275E+00
(PID.TID 0000.0001) %MON dynstat_vvel_del2            =   8.6139766059515E-01
(PID.TID 0000.0001) %MON dynstat_wvel_max             =   1.4044345473280E+00
(PID.TID 0000.0001) %MON dynstat_wvel_min             =  -2.9898067993516E+00
(PID.TID 0000.0001) %MON dynstat_wvel_mean            =  -3.8757704541442E-18
(PID.TID 0000.0001) %MON dynstat_wvel_sd              =   1.6607933738352E-01
(PID.TID 0000.0001) %MON dynstat_wvel_del2            =   4.0273852867227E-02
(PID.TID 0000.0001) %MON dynstat_theta_max            =   4.0489508373615E+02
(PID.TID 0000.0001) %MON dynstat_theta_min            =   2.7722782124728E+02
(PID.TID 0000.0001) %MON dynstat_theta_mean           =   3.1126321811884E+02
(PID.TID 0000.0001) %MON dynstat_theta_sd             =   3.5663219546703E+01
(PID.TID 0000.0001) %MON dynstat_theta_del2           =   3.6868048255747E-01
(PID.TID 0000.0001) %MON dynstat_salt_max             =   1.2368686190627E+01
(PID.TID 0000.0001) %MON dynstat_salt_min             =  -1.7596265710758E-01
(PID.TID 0000.0001) %MON dynstat_salt_mean            =   8.5429852610212E-01
(PID.TID 0000.0001) %MON dynstat_salt_sd              =   1.2843850979131E+00
(PID.TID 0000.0001) %MON dynstat_salt_del2            =   5.9939651256598E-02
(PID.TID 0000.0001) %MON advcfl_uvel_max              =   1.3334909172138E-01
(PID.TID 0000.0001) %MON advcfl_vvel_max              =   7.0763442271450E-02
(PID.TID 0000.0001) %MON advcfl_wvel_max              =   6.5232148349490E-02
(PID.TID 0000.0001) %MON advcfl_W_hf_max              =   1.7654808089144E-01
(PID.TID 0000.0001) %MON pe_b_mean                    =   5.0583139085902E-01
(PID.TID 0000.0001) %MON ke_max                       =   2.3818547587915E+03
(PID.TID 0000.0001) %MON ke_mean                      =   2.8490797257636E+02
(PID.TID 0000.0001) %MON ke_vol                       =   2.7279762099329E+19
(PID.TID 0000.0001) %MON vort_r_min                   =  -1.8770595803603E-04
(PID.TID 0000.0001) %MON vort_r_max                   =   1.4857800665191E-04
(PID.TID 0000.0001) %MON vort_a_mean                  =  -2.9752652318391E-06
(PID.TID 0000.0001) %MON vort_a_sd                    =   6.0437943637787E-05
(PID.TID 0000.0001) %MON vort_p_mean                  =  -3.0340754917182E-06
(PID.TID 0000.0001) %MON vort_p_sd                    =   6.3333786043650E-05
(PID.TID 0000.0001) %MON surfExpan_theta_mean         =  -5.1298450900421E-04
(PID.TID 0000.0001) %MON surfExpan_salt_mean          =   6.0605082890057E-05
(PID.TID 0000.0001) %MON surfExpan_Heat_mean          =  -5.1737360903482E-02
(PID.TID 0000.0001) %MON En_Budget_T2PE_mean          =   1.4065305200605E+00
(PID.TID 0000.0001) // =======================================================
(PID.TID 0000.0001) // End MONITOR dynamic field statistics
(PID.TID 0000.0001) // =======================================================
 cg2d: Sum(rhs),rhsMax =   3.59648311132332E-09  3.48344812223562E+03
(PID.TID 0000.0001)                    cg2d_init_res =    8.27707217771845E+02
(PID.TID 0000.0001)                       cg2d_iters =    15
(PID.TID 0000.0001)                         cg2d_res =    1.19833633550728E-11
(PID.TID 0000.0001) // =======================================================
(PID.TID 0000.0001) // Begin MONITOR dynamic field statistics
(PID.TID 0000.0001) // =======================================================
(PID.TID 0000.0001) %MON time_tsnumber                =                 51846
(PID.TID 0000.0001) %MON time_secondsf                =   3.1107600000000E+07
(PID.TID 0000.0001) %MON dynstat_eta_max              =   5.6267621352138E+02
(PID.TID 0000.0001) %MON dynstat_eta_min              =  -1.2434882397865E+03
(PID.TID 0000.0001) %MON dynstat_eta_mean             =  -4.3332422312584E-13
(PID.TID 0000.0001) %MON dynstat_eta_sd               =   3.1823188654706E+02
(PID.TID 0000.0001) %MON dynstat_eta_del2             =   2.1163549687449E+01
(PID.TID 0000.0001) %MON dynstat_uvel_max             =   6.9601263780108E+01
(PID.TID 0000.0001) %MON dynstat_uvel_min             =  -5.4420242086598E+01
(PID.TID 0000.0001) %MON dynstat_uvel_mean            =   9.8877518453362E+00
(PID.TID 0000.0001) %MON dynstat_uvel_sd              =   2.0920385121935E+01
(PID.TID 0000.0001) %MON dynstat_uvel_del2            =   1.5797906775971E+00
(PID.TID 0000.0001) %MON dynstat_vvel_max             =   2.8220665161246E+01
(PID.TID 0000.0001) %MON dynstat_vvel_min             =  -3.6899546891709E+01
(PID.TID 0000.0001) %MON dynstat_vvel_mean            =   1.3536251670396E-02
(PID.TID 0000.0001) %MON dynstat_vvel_sd              =   5.9744360536908E+00
(PID.TID 0000.0001) %MON dynstat_vvel_del2            =   8.6086452085321E-01
(PID.TID 0000.0001) %MON dynstat_wvel_max             =   1.3553472796917E+00
(PID.TID 0000.0001) %MON dynstat_wvel_min             =  -3.0052264227417E+00
(PID.TID 0000.0001) %MON dynstat_wvel_mean            =  -7.3796497312667E-18
(PID.TID 0000.0001) %MON dynstat_wvel_sd              =   1.6565472351327E-01
(PID.TID 0000.0001) %MON dynstat_wvel_del2            =   4.0209204893983E-02
(PID.TID 0000.0001) %MON dynstat_theta_max            =   4.0486045650588E+02
(PID.TID 0000.0001) %MON dynstat_theta_min            =   2.7722374735360E+02
(PID.TID 0000.0001) %MON dynstat_theta_mean           =   3.1126332709352E+02
(PID.TID 0000.0001) %MON dynstat_theta_sd             =   3.5663104931468E+01
(PID.TID 0000.0001) %MON dynstat_theta_del2           =   3.6861694241513E-01
(PID.TID 0000.0001) %MON dynstat_salt_max             =   1.2359318904884E+01
(PID.TID 0000.0001) %MON dynstat_salt_min             =  -1.7400079308410E-01
(PID.TID 0000.0001) %MON dynstat_salt_mean            =   8.5426400208302E-01
(PID.TID 0000.0001) %MON dynstat_salt_sd              =   1.2843696601010E+00
(PID.TID 0000.0001) %MON dynstat_salt_del2            =   5.9893128715662E-02
(PID.TID 0000.0001) %MON advcfl_uvel_max              =   1.3355465957934E-01
(PID.TID 0000.0001) %MON advcfl_vvel_max              =   7.0804841120753E-02
(PID.TID 0000.0001) %MON advcfl_wvel_max              =   6.5568576496183E-02
(PID.TID 0000.0001) %MON advcfl_W_hf_max              =   1.7571196542709E-01
(PID.TID 0000.0001) %MON pe_b_mean                    =   5.0635766807651E-01
(PID.TID 0000.0001) %MON ke_max                       =   2.3820022998711E+03
(PID.TID 0000.0001) %MON ke_mean                      =   2.8489367784585E+02
(PID.TID 0000.0001) %MON ke_vol                       =   2.7279762099329E+19
(PID.TID 0000.0001) %MON vort_r_min                   =  -1.8873410100438E-04
(PID.TID 0000.0001) %MON vort_r_max                   =   1.5051018061785E-04
(PID.TID 0000.0001) %MON vort_a_mean                  =  -2.9752660669132E-06
(PID.TID 0000.0001) %MON vort_a_sd                    =   6.0438041711625E-05
(PID.TID 0000.0001) %MON vort_p_mean                  =  -3.0340763432988E-06
(PID.TID 0000.0001) %MON vort_p_sd                    =   6.3333929539819E-05
(PID.TID 0000.0001) %MON surfExpan_theta_mean         =  -4.8820714151331E-04
(PID.TID 0000.0001) %MON surfExpan_salt_mean          =   4.7605708787554E-05
(PID.TID 0000.0001) %MON surfExpan_Heat_mean          =  -4.9238424616692E-02
(PID.TID 0000.0001) %MON En_Budget_T2PE_mean          =   1.3938622481702E+00
(PID.TID 0000.0001) // =======================================================
(PID.TID 0000.0001) // End MONITOR dynamic field statistics
(PID.TID 0000.0001) // =======================================================
 cg2d: Sum(rhs),rhsMax =   3.45630724041257E-09  3.54754703442952E+03
(PID.TID 0000.0001)                    cg2d_init_res =    8.26703446691447E+02
(PID.TID 0000.0001)                       cg2d_iters =    15
(PID.TID 0000.0001)                         cg2d_res =    1.19762475158967E-11
(PID.TID 0000.0001) // =======================================================
(PID.TID 0000.0001) // Begin MONITOR dynamic field statistics
(PID.TID 0000.0001) // =======================================================
(PID.TID 0000.0001) %MON time_tsnumber                =                 51847
(PID.TID 0000.0001) %MON time_secondsf                =   3.1108200000000E+07
(PID.TID 0000.0001) %MON dynstat_eta_max              =   5.6446158542702E+02
(PID.TID 0000.0001) %MON dynstat_eta_min              =  -1.2583445143296E+03
(PID.TID 0000.0001) %MON dynstat_eta_mean             =  -6.5980038941366E-13
(PID.TID 0000.0001) %MON dynstat_eta_sd               =   3.1839281091658E+02
(PID.TID 0000.0001) %MON dynstat_eta_del2             =   2.1151831383615E+01
(PID.TID 0000.0001) %MON dynstat_uvel_max             =   6.9671161995140E+01
(PID.TID 0000.0001) %MON dynstat_uvel_min             =  -5.4557445431406E+01
(PID.TID 0000.0001) %MON dynstat_uvel_mean            =   9.8876938744106E+00
(PID.TID 0000.0001) %MON dynstat_uvel_sd              =   2.0920660791989E+01
(PID.TID 0000.0001) %MON dynstat_uvel_del2            =   1.5800409189077E+00
(PID.TID 0000.0001) %MON dynstat_vvel_max             =   2.8257731288116E+01
(PID.TID 0000.0001) %MON dynstat_vvel_min             =  -3.6906280628071E+01
(PID.TID 0000.0001) %MON dynstat_vvel_mean            =   1.3700296956831E-02
(PID.TID 0000.0001) %MON dynstat_vvel_sd              =   5.9709381195754E+00
(PID.TID 0000.0001) %MON dynstat_vvel_del2            =   8.6037123154069E-01
(PID.TID 0000.0001) %MON dynstat_wvel_max             =   1.3026399015608E+00
(PID.TID 0000.0001) %MON dynstat_wvel_min             =  -3.0185361484653E+00
(PID.TID 0000.0001) %MON dynstat_wvel_mean            =  -3.5465701239480E-20
(PID.TID 0000.0001) %MON dynstat_wvel_sd              =   1.6523230202561E-01
(PID.TID 0000.0001) %MON dynstat_wvel_del2            =   4.0149827009484E-02
(PID.TID 0000.0001) %MON dynstat_theta_max            =   4.0482127310746E+02
(PID.TID 0000.0001) %MON dynstat_theta_min            =   2.7721985390139E+02
(PID.TID 0000.0001) %MON dynstat_theta_mean           =   3.1126343459874E+02
(PID.TID 0000.0001) %MON dynstat_theta_sd             =   3.5662988812701E+01
(PID.TID 0000.0001) %MON dynstat_theta_del2           =   3.6858331246675E-01
(PID.TID 0000.0001) %MON dynstat_salt_max             =   1.2347487492453E+01
(PID.TID 0000.0001) %MON dynstat_salt_min             =  -1.7164538265214E-01
(PID.TID 0000.0001) %MON dynstat_salt_mean            =   8.5423018158703E-01
(PID.TID 0000.0001) %MON dynstat_salt_sd              =   1.2843553663419E+00
(PID.TID 0000.0001) %MON dynstat_salt_del2            =   5.9850737447178E-02
(PID.TID 0000.0001) %MON advcfl_uvel_max              =   1.3368878404500E-01
(PID.TID 0000.0001) %MON advcfl_vvel_max              =   7.0817762177336E-02
(PID.TID 0000.0001) %MON advcfl_wvel_max              =   6.5858970511971E-02
(PID.TID 0000.0001) %MON advcfl_W_hf_max              =   1.7478598514262E-01
(PID.TID 0000.0001) %MON pe_b_mean                    =   5.0686991021681E-01
(PID.TID 0000.0001) %MON ke_max                       =   2.3803367689447E+03
(PID.TID 0000.0001) %MON ke_mean                      =   2.8487879635475E+02
(PID.TID 0000.0001) %MON ke_vol                       =   2.7279762099329E+19
(PID.TID 0000.0001) %MON vort_r_min                   =  -1.8924643104220E-04
(PID.TID 0000.0001) %MON vort_r_max                   =   1.5224087356098E-04
(PID.TID 0000.0001) %MON vort_a_mean                  =  -2.9752668991186E-06
(PID.TID 0000.0001) %MON vort_a_sd                    =   6.0437926494281E-05
(PID.TID 0000.0001) %MON vort_p_mean                  =  -3.0340771919539E-06
(PID.TID 0000.0001) %MON vort_p_sd                    =   6.3333891811260E-05
(PID.TID 0000.0001) %MON surfExpan_theta_mean         =  -4.6932950671187E-04
(PID.TID 0000.0001) %MON surfExpan_salt_mean          =   3.4461398809520E-05
(PID.TID 0000.0001) %MON surfExpan_Heat_mean          =  -4.7334509415364E-02
(PID.TID 0000.0001) %MON En_Budget_T2PE_mean          =   1.3818434737257E+00
(PID.TID 0000.0001) // =======================================================
(PID.TID 0000.0001) // End MONITOR dynamic field statistics
(PID.TID 0000.0001) // =======================================================
 cg2d: Sum(rhs),rhsMax =   3.77576725441031E-09  3.59377539882710E+03
(PID.TID 0000.0001)                    cg2d_init_res =    8.25039683916203E+02
(PID.TID 0000.0001)                       cg2d_iters =    15
(PID.TID 0000.0001)                         cg2d_res =    1.19621088211459E-11
(PID.TID 0000.0001) // =======================================================
(PID.TID 0000.0001) // Begin MONITOR dynamic field statistics
(PID.TID 0000.0001) // =======================================================
(PID.TID 0000.0001) %MON time_tsnumber                =                 51848
(PID.TID 0000.0001) %MON time_secondsf                =   3.1108800000000E+07
(PID.TID 0000.0001) %MON dynstat_eta_max              =   5.6604715968906E+02
(PID.TID 0000.0001) %MON dynstat_eta_min              =  -1.2693306997549E+03
(PID.TID 0000.0001) %MON dynstat_eta_mean             =  -4.5489864720282E-13
(PID.TID 0000.0001) %MON dynstat_eta_sd               =   3.1854938276684E+02
(PID.TID 0000.0001) %MON dynstat_eta_del2             =   2.1134708362983E+01
(PID.TID 0000.0001) %MON dynstat_uvel_max             =   6.9704992957282E+01
(PID.TID 0000.0001) %MON dynstat_uvel_min             =  -5.4674545469636E+01
(PID.TID 0000.0001) %MON dynstat_uvel_mean            =   9.8876336333288E+00
(PID.TID 0000.0001) %MON dynstat_uvel_sd              =   2.0920919301725E+01
(PID.TID 0000.0001) %MON dynstat_uvel_del2            =   1.5804750869590E+00
(PID.TID 0000.0001) %MON dynstat_vvel_max             =   2.8240574484466E+01
(PID.TID 0000.0001) %MON dynstat_vvel_min             =  -3.6898115323032E+01
(PID.TID 0000.0001) %MON dynstat_vvel_mean            =   1.3862326163435E-02
(PID.TID 0000.0001) %MON dynstat_vvel_sd              =   5.9674106163242E+00
(PID.TID 0000.0001) %MON dynstat_vvel_del2            =   8.5986360974737E-01
(PID.TID 0000.0001) %MON dynstat_wvel_max             =   1.2466635675641E+00
(PID.TID 0000.0001) %MON dynstat_wvel_min             =  -3.0297285260317E+00
(PID.TID 0000.0001) %MON dynstat_wvel_mean            =  -2.7542345375942E-18
(PID.TID 0000.0001) %MON dynstat_wvel_sd              =   1.6481534181593E-01
(PID.TID 0000.0001) %MON dynstat_wvel_del2            =   4.0085455218764E-02
(PID.TID 0000.0001) %MON dynstat_theta_max            =   4.0477749534622E+02
(PID.TID 0000.0001) %MON dynstat_theta_min            =   2.7721614149557E+02
(PID.TID 0000.0001) %MON dynstat_theta_mean           =   3.1126353074007E+02
(PID.TID 0000.0001) %MON dynstat_theta_sd             =   3.5662879820652E+01
(PID.TID 0000.0001) %MON dynstat_theta_del2           =   3.6855630552509E-01
(PID.TID 0000.0001) %MON dynstat_salt_max             =   1.2333173344427E+01
(PID.TID 0000.0001) %MON dynstat_salt_min             =  -1.6890934029469E-01
(PID.TID 0000.0001) %MON dynstat_salt_mean            =   8.5420066458690E-01
(PID.TID 0000.0001) %MON dynstat_salt_sd              =   1.2843454548381E+00
(PID.TID 0000.0001) %MON dynstat_salt_del2            =   5.9801827456875E-02
(PID.TID 0000.0001) %MON advcfl_uvel_max              =   1.3375370072017E-01
(PID.TID 0000.0001) %MON advcfl_vvel_max              =   7.0802094149549E-02
(PID.TID 0000.0001) %MON advcfl_wvel_max              =   6.6103167840692E-02
(PID.TID 0000.0001) %MON advcfl_W_hf_max              =   1.7377209078322E-01
(PID.TID 0000.0001) %MON pe_b_mean                    =   5.0736854630569E-01
(PID.TID 0000.0001) %MON ke_max                       =   2.3919527514691E+03
(PID.TID 0000.0001) %MON ke_mean                      =   2.8486337562920E+02
(PID.TID 0000.0001) %MON ke_vol                       =   2.7279762099329E+19
(PID.TID 0000.0001) %MON vort_r_min                   =  -1.8925641863643E-04
(PID.TID 0000.0001) %MON vort_r_max                   =   1.5377175228175E-04
(PID.TID 0000.0001) %MON vort_a_mean                  =  -2.9752677286018E-06
(PID.TID 0000.0001) %MON vort_a_sd                    =   6.0437602310534E-05
(PID.TID 0000.0001) %MON vort_p_mean                  =  -3.0340780378329E-06
(PID.TID 0000.0001) %MON vort_p_sd                    =   6.3333677879534E-05
(PID.TID 0000.0001) %MON surfExpan_theta_mean         =  -4.5652097292428E-04
(PID.TID 0000.0001) %MON surfExpan_salt_mean          =   2.1997742387022E-05
(PID.TID 0000.0001) %MON surfExpan_Heat_mean          =  -4.6042697043717E-02
(PID.TID 0000.0001) %MON En_Budget_T2PE_mean          =   1.3705474628135E+00
(PID.TID 0000.0001) // =======================================================
(PID.TID 0000.0001) // End MONITOR dynamic field statistics
(PID.TID 0000.0001) // =======================================================
 cg2d: Sum(rhs),rhsMax =   4.36648406321183E-09  3.62147224666061E+03
(PID.TID 0000.0001)                    cg2d_init_res =    8.23040606230162E+02
(PID.TID 0000.0001)                       cg2d_iters =    15
(PID.TID 0000.0001)                         cg2d_res =    1.19431160968075E-11
(PID.TID 0000.0001) // =======================================================
(PID.TID 0000.0001) // Begin MONITOR dynamic field statistics
(PID.TID 0000.0001) // =======================================================
(PID.TID 0000.0001) %MON time_tsnumber                =                 51849
(PID.TID 0000.0001) %MON time_secondsf                =   3.1109400000000E+07
(PID.TID 0000.0001) %MON dynstat_eta_max              =   5.6742440237214E+02
(PID.TID 0000.0001) %MON dynstat_eta_min              =  -1.2763008536156E+03
(PID.TID 0000.0001) %MON dynstat_eta_mean             =  -5.9532162078124E-13
(PID.TID 0000.0001) %MON dynstat_eta_sd               =   3.1870177951756E+02
(PID.TID 0000.0001) %MON dynstat_eta_del2             =   2.1125498026295E+01
(PID.TID 0000.0001) %MON dynstat_uvel_max             =   6.9704221279428E+01
(PID.TID 0000.0001) %MON dynstat_uvel_min             =  -5.4774070733926E+01
(PID.TID 0000.0001) %MON dynstat_uvel_mean            =   9.8875714256904E+00
(PID.TID 0000.0001) %MON dynstat_uvel_sd              =   2.0921161626509E+01
(PID.TID 0000.0001) %MON dynstat_uvel_del2            =   1.5808375416533E+00
(PID.TID 0000.0001) %MON dynstat_vvel_max             =   2.8170187165774E+01
(PID.TID 0000.0001) %MON dynstat_vvel_min             =  -3.6875040030115E+01
(PID.TID 0000.0001) %MON dynstat_vvel_mean            =   1.4021408101294E-02
(PID.TID 0000.0001) %MON dynstat_vvel_sd              =   5.9638575359656E+00
(PID.TID 0000.0001) %MON dynstat_vvel_del2            =   8.5952258848354E-01
(PID.TID 0000.0001) %MON dynstat_wvel_max             =   1.2321317594016E+00
(PID.TID 0000.0001) %MON dynstat_wvel_min             =  -3.0388372872947E+00
(PID.TID 0000.0001) %MON dynstat_wvel_mean            =   5.5825492101277E-18
(PID.TID 0000.0001) %MON dynstat_wvel_sd              =   1.6440715405565E-01
(PID.TID 0000.0001) %MON dynstat_wvel_del2            =   4.0004581242225E-02
(PID.TID 0000.0001) %MON dynstat_theta_max            =   4.0472911282811E+02
(PID.TID 0000.0001) %MON dynstat_theta_min            =   2.7721261095928E+02
(PID.TID 0000.0001) %MON dynstat_theta_mean           =   3.1126362211485E+02
(PID.TID 0000.0001) %MON dynstat_theta_sd             =   3.5662772417374E+01
(PID.TID 0000.0001) %MON dynstat_theta_del2           =   3.6849599643677E-01
(PID.TID 0000.0001) %MON dynstat_salt_max             =   1.2316419174248E+01
(PID.TID 0000.0001) %MON dynstat_salt_min             =  -1.6683739119141E-01
(PID.TID 0000.0001) %MON dynstat_salt_mean            =   8.5417307930663E-01
(PID.TID 0000.0001) %MON dynstat_salt_sd              =   1.2843383322557E+00
(PID.TID 0000.0001) %MON dynstat_salt_del2            =   5.9748192957616E-02
(PID.TID 0000.0001) %MON advcfl_uvel_max              =   1.3375221998308E-01
(PID.TID 0000.0001) %MON advcfl_vvel_max              =   7.0757816032705E-02
(PID.TID 0000.0001) %MON advcfl_wvel_max              =   6.6301904450067E-02
(PID.TID 0000.0001) %MON advcfl_W_hf_max              =   1.7267602124885E-01
(PID.TID 0000.0001) %MON pe_b_mean                    =   5.0785412133832E-01
(PID.TID 0000.0001) %MON ke_max                       =   2.4051339537958E+03
(PID.TID 0000.0001) %MON ke_mean                      =   2.8484746223384E+02
(PID.TID 0000.0001) %MON ke_vol                       =   2.7279762099329E+19
(PID.TID 0000.0001) %MON vort_r_min                   =  -1.8878325722220E-04
(PID.TID 0000.0001) %MON vort_r_max                   =   1.5510584369403E-04
(PID.TID 0000.0001) %MON vort_a_mean                  =  -2.9752685557786E-06
(PID.TID 0000.0001) %MON vort_a_sd                    =   6.0437071980078E-05
(PID.TID 0000.0001) %MON vort_p_mean                  =  -3.0340788813601E-06
(PID.TID 0000.0001) %MON vort_p_sd                    =   6.3333291075611E-05
(PID.TID 0000.0001) %MON surfExpan_theta_mean         =  -4.4860705901269E-04
(PID.TID 0000.0001) %MON surfExpan_salt_mean          =   1.0298943874325E-05
(PID.TID 0000.0001) %MON surfExpan_Heat_mean          =  -4.5244534500767E-02
(PID.TID 0000.0001) %MON En_Budget_T2PE_mean          =   1.3599818729566E+00
(PID.TID 0000.0001) // =======================================================
(PID.TID 0000.0001) // End MONITOR dynamic field statistics
(PID.TID 0000.0001) // =======================================================
 cg2d: Sum(rhs),rhsMax =   2.11008455153205E-09  3.63040199404920E+03
(PID.TID 0000.0001)                    cg2d_init_res =    8.20510392733770E+02
(PID.TID 0000.0001)                       cg2d_iters =    15
(PID.TID 0000.0001)                         cg2d_res =    1.19174601371106E-11
(PID.TID 0000.0001) // =======================================================
(PID.TID 0000.0001) // Begin MONITOR dynamic field statistics
(PID.TID 0000.0001) // =======================================================
(PID.TID 0000.0001) %MON time_tsnumber                =                 51850
(PID.TID 0000.0001) %MON time_secondsf                =   3.1110000000000E+07
(PID.TID 0000.0001) %MON dynstat_eta_max              =   5.6858875008257E+02
(PID.TID 0000.0001) %MON dynstat_eta_min              =  -1.2791715726059E+03
(PID.TID 0000.0001) %MON dynstat_eta_mean             =  -5.1763277887408E-13
(PID.TID 0000.0001) %MON dynstat_eta_sd               =   3.1885012413997E+02
(PID.TID 0000.0001) %MON dynstat_eta_del2             =   2.1107316505286E+01
(PID.TID 0000.0001) %MON dynstat_uvel_max             =   6.9670525318233E+01
(PID.TID 0000.0001) %MON dynstat_uvel_min             =  -5.4858440790085E+01
(PID.TID 0000.0001) %MON dynstat_uvel_mean            =   9.8875074448413E+00
(PID.TID 0000.0001) %MON dynstat_uvel_sd              =   2.0921388969878E+01
(PID.TID 0000.0001) %MON dynstat_uvel_del2            =   1.5811222502614E+00
(PID.TID 0000.0001) %MON dynstat_vvel_max             =   2.8048049244937E+01
(PID.TID 0000.0001) %MON dynstat_vvel_min             =  -3.6837089553208E+01
(PID.TID 0000.0001) %MON dynstat_vvel_mean            =   1.4176713518874E-02
(PID.TID 0000.0001) %MON dynstat_vvel_sd              =   5.9602821760135E+00
(PID.TID 0000.0001) %MON dynstat_vvel_del2            =   8.5929021202375E-01
(PID.TID 0000.0001) %MON dynstat_wvel_max             =   1.2400916836868E+00
(PID.TID 0000.0001) %MON dynstat_wvel_min             =  -3.0458648193010E+00
(PID.TID 0000.0001) %MON dynstat_wvel_mean            =   1.3264880363661E-18
(PID.TID 0000.0001) %MON dynstat_wvel_sd              =   1.6401130627818E-01
(PID.TID 0000.0001) %MON dynstat_wvel_del2            =   3.9933421972853E-02
(PID.TID 0000.0001) %MON dynstat_theta_max            =   4.0467614013704E+02
(PID.TID 0000.0001) %MON dynstat_theta_min            =   2.7720926331222E+02
(PID.TID 0000.0001) %MON dynstat_theta_mean           =   3.1126370778106E+02
(PID.TID 0000.0001) %MON dynstat_theta_sd             =   3.5662666441750E+01
(PID.TID 0000.0001) %MON dynstat_theta_del2           =   3.6849435918017E-01
(PID.TID 0000.0001) %MON dynstat_salt_max             =   1.2297264976072E+01
(PID.TID 0000.0001) %MON dynstat_salt_min             =  -1.6787130079932E-01
(PID.TID 0000.0001) %MON dynstat_salt_mean            =   8.5414716561367E-01
(PID.TID 0000.0001) %MON dynstat_salt_sd              =   1.2843320436793E+00
(PID.TID 0000.0001) %MON dynstat_salt_del2            =   5.9693620116974E-02
(PID.TID 0000.0001) %MON advcfl_uvel_max              =   1.3368756235501E-01
(PID.TID 0000.0001) %MON advcfl_vvel_max              =   7.0684994610379E-02
(PID.TID 0000.0001) %MON advcfl_wvel_max              =   6.6455232421112E-02
(PID.TID 0000.0001) %MON advcfl_W_hf_max              =   1.7149818484386E-01
(PID.TID 0000.0001) %MON pe_b_mean                    =   5.0832700832040E-01
(PID.TID 0000.0001) %MON ke_max                       =   2.4159583056839E+03
(PID.TID 0000.0001) %MON ke_mean                      =   2.8483110238911E+02
(PID.TID 0000.0001) %MON ke_vol                       =   2.7279762099329E+19
(PID.TID 0000.0001) %MON vort_r_min                   =  -1.8785125009663E-04
(PID.TID 0000.0001) %MON vort_r_max                   =   1.5624745696411E-04
(PID.TID 0000.0001) %MON vort_a_mean                  =  -2.9752693813475E-06
(PID.TID 0000.0001) %MON vort_a_sd                    =   6.0436339486337E-05
(PID.TID 0000.0001) %MON vort_p_mean                  =  -3.0340797232475E-06
(PID.TID 0000.0001) %MON vort_p_sd                    =   6.3332735736754E-05
(PID.TID 0000.0001) %MON surfExpan_theta_mean         =  -4.4436070500363E-04
(PID.TID 0000.0001) %MON surfExpan_salt_mean          =  -7.2595469350590E-07
(PID.TID 0000.0001) %MON surfExpan_Heat_mean          =  -4.4816265915585E-02
(PID.TID 0000.0001) %MON En_Budget_T2PE_mean          =   1.3501742190797E+00
(PID.TID 0000.0001) // =======================================================
(PID.TID 0000.0001) // End MONITOR dynamic field statistics
(PID.TID 0000.0001) // =======================================================
(PID.TID 0000.0001) %CHECKPOINT     51850 ckptA
(PID.TID 0000.0001)   Seconds in section "ALL                    [THE_MODEL_MAIN]":
(PID.TID 0000.0001)           User time:  3.43000006
(PID.TID 0000.0001)         System time:  0.100000001
(PID.TID 0000.0001)     Wall clock time:  3.56816506
(PID.TID 0000.0001)          No. starts: 1
(PID.TID 0000.0001)           No. stops: 1
(PID.TID 0000.0001)   Seconds in section "INITIALISE_FIXED       [THE_MODEL_MAIN]":
(PID.TID 0000.0001)           User time:  0.109999998
(PID.TID 0000.0001)         System time:  0.00999999978
(PID.TID 0000.0001)     Wall clock time:  0.130865812
(PID.TID 0000.0001)          No. starts: 1
(PID.TID 0000.0001)           No. stops: 1
(PID.TID 0000.0001)   Seconds in section "THE_MAIN_LOOP          [THE_MODEL_MAIN]":
(PID.TID 0000.0001)           User time:  3.30000008
(PID.TID 0000.0001)         System time:  0.0699999984
(PID.TID 0000.0001)     Wall clock time:  3.37406707
(PID.TID 0000.0001)          No. starts: 1
(PID.TID 0000.0001)           No. stops: 1
(PID.TID 0000.0001)   Seconds in section "INITIALISE_VARIA    [THE_MAIN_LOOP]":
(PID.TID 0000.0001)           User time:  0.0600000098
(PID.TID 0000.0001)         System time:  0.0199999996
(PID.TID 0000.0001)     Wall clock time:  0.085267067
(PID.TID 0000.0001)          No. starts: 1
(PID.TID 0000.0001)           No. stops: 1
(PID.TID 0000.0001)   Seconds in section "MONITOR             [THE_MAIN_LOOP]":
(PID.TID 0000.0001)           User time:  0.049999997
(PID.TID 0000.0001)         System time:  0.
(PID.TID 0000.0001)     Wall clock time:  0.0472090244
(PID.TID 0000.0001)          No. starts: 1
(PID.TID 0000.0001)           No. stops: 1
(PID.TID 0000.0001)   Seconds in section "DO_THE_MODEL_IO     [THE_MAIN_LOOP]":
(PID.TID 0000.0001)           User time:  0.
(PID.TID 0000.0001)         System time:  0.0200000014
(PID.TID 0000.0001)     Wall clock time:  0.0197269917
(PID.TID 0000.0001)          No. starts: 1
(PID.TID 0000.0001)           No. stops: 1
(PID.TID 0000.0001)   Seconds in section "MAIN LOOP           [THE_MAIN_LOOP]":
(PID.TID 0000.0001)           User time:  3.19000007
(PID.TID 0000.0001)         System time:  0.0299999975
(PID.TID 0000.0001)     Wall clock time:  3.22175407
(PID.TID 0000.0001)          No. starts: 1
(PID.TID 0000.0001)           No. stops: 1
(PID.TID 0000.0001)   Seconds in section "FORWARD_STEP        [THE_MAIN_LOOP]":
(PID.TID 0000.0001)           User time:  3.19000007
(PID.TID 0000.0001)         System time:  0.0299999975
(PID.TID 0000.0001)     Wall clock time:  3.22152305
(PID.TID 0000.0001)          No. starts: 10
(PID.TID 0000.0001)           No. stops: 10
(PID.TID 0000.0001)   Seconds in section "UPDATE_ETAH        [FORWARD_STEP]":
(PID.TID 0000.0001)           User time:  0.
(PID.TID 0000.0001)         System time:  0.
(PID.TID 0000.0001)     Wall clock time:  0.00120949745
(PID.TID 0000.0001)          No. starts: 10
(PID.TID 0000.0001)           No. stops: 10
(PID.TID 0000.0001)   Seconds in section "EXTERNAL_FIELDS_LOAD[FORWARD_STEP]":
(PID.TID 0000.0001)           User time:  0.
(PID.TID 0000.0001)         System time:  0.
(PID.TID 0000.0001)     Wall clock time:  0.000221252441
(PID.TID 0000.0001)          No. starts: 10
(PID.TID 0000.0001)           No. stops: 10
(PID.TID 0000.0001)   Seconds in section "THERMODYNAMICS      [FORWARD_STEP]":
(PID.TID 0000.0001)           User time:  1.16000007
(PID.TID 0000.0001)         System time:  0.00999999791
(PID.TID 0000.0001)     Wall clock time:  1.16567993
(PID.TID 0000.0001)          No. starts: 10
(PID.TID 0000.0001)           No. stops: 10
(PID.TID 0000.0001)   Seconds in section "AIM_DO_PHYSICS   [THERMODYNAMICS]":
(PID.TID 0000.0001)           User time:  0.749999508
(PID.TID 0000.0001)         System time:  0.00999999791
(PID.TID 0000.0001)     Wall clock time:  0.742995977
(PID.TID 0000.0001)          No. starts: 20
(PID.TID 0000.0001)           No. stops: 20
(PID.TID 0000.0001)   Seconds in section "BLOCKING_EXCHANGES  [FORWARD_STEP]":
(PID.TID 0000.0001)           User time:  0.
(PID.TID 0000.0001)         System time:  0.
(PID.TID 0000.0001)     Wall clock time:  0.0117061138
(PID.TID 0000.0001)          No. starts: 20
(PID.TID 0000.0001)           No. stops: 20
(PID.TID 0000.0001)   Seconds in section "SHAP_FILT           [FORWARD_STEP]":
(PID.TID 0000.0001)           User time:  0.23999992
(PID.TID 0000.0001)         System time:  0.0100000016
(PID.TID 0000.0001)     Wall clock time:  0.256067276
(PID.TID 0000.0001)          No. starts: 10
(PID.TID 0000.0001)           No. stops: 10
(PID.TID 0000.0001)   Seconds in section "DYNAMICS            [FORWARD_STEP]":
(PID.TID 0000.0001)           User time:  0.580000013
(PID.TID 0000.0001)         System time:  0.
(PID.TID 0000.0001)     Wall clock time:  0.570298433
(PID.TID 0000.0001)          No. starts: 10
(PID.TID 0000.0001)           No. stops: 10
(PID.TID 0000.0001)   Seconds in section "SOLVE_FOR_PRESSURE  [FORWARD_STEP]":
(PID.TID 0000.0001)           User time:  0.299999774
(PID.TID 0000.0001)         System time:  0.00999999791
(PID.TID 0000.0001)     Wall clock time:  0.315673351
(PID.TID 0000.0001)          No. starts: 10
(PID.TID 0000.0001)           No. stops: 10
(PID.TID 0000.0001)   Seconds in section "THE_CORRECTION_STEP [FORWARD_STEP]":
(PID.TID 0000.0001)           User time:  0.420000046
(PID.TID 0000.0001)         System time:  0.
(PID.TID 0000.0001)     Wall clock time:  0.419550896
(PID.TID 0000.0001)          No. starts: 10
(PID.TID 0000.0001)           No. stops: 10
(PID.TID 0000.0001)   Seconds in section "MONITOR             [FORWARD_STEP]":
(PID.TID 0000.0001)           User time:  0.470000267
(PID.TID 0000.0001)         System time:  0.
(PID.TID 0000.0001)     Wall clock time:  0.454254627
(PID.TID 0000.0001)          No. starts: 10
(PID.TID 0000.0001)           No. stops: 10
(PID.TID 0000.0001)   Seconds in section "DO_THE_MODEL_IO     [FORWARD_STEP]":
(PID.TID 0000.0001)           User time:  0.0199999809
(PID.TID 0000.0001)         System time:  0.
(PID.TID 0000.0001)     Wall clock time:  0.0238599777
(PID.TID 0000.0001)          No. starts: 10
(PID.TID 0000.0001)           No. stops: 10
(PID.TID 0000.0001)   Seconds in section "WRITE_CHECKPOINT    [FORWARD_STEP]":
(PID.TID 0000.0001)           User time:  0.
(PID.TID 0000.0001)         System time:  0.
(PID.TID 0000.0001)     Wall clock time:  0.000221252441
(PID.TID 0000.0001)          No. starts: 10
(PID.TID 0000.0001)           No. stops: 10
(PID.TID 0000.0001)   Seconds in section "WRITE_CHECKPOINT       [THE_MODEL_MAIN]":
(PID.TID 0000.0001)           User time:  0.0199999809
(PID.TID 0000.0001)         System time:  0.0200000033
(PID.TID 0000.0001)     Wall clock time:  0.0631430149
(PID.TID 0000.0001)          No. starts: 1
(PID.TID 0000.0001)           No. stops: 1
(PID.TID 0000.0001) // ======================================================
(PID.TID 0000.0001) // Tile <-> Tile communication statistics
(PID.TID 0000.0001) // ======================================================
(PID.TID 0000.0001) // o Tile number: 000001
(PID.TID 0000.0001) //         No. X exchanges =              0
(PID.TID 0000.0001) //            Max. X spins =              0
(PID.TID 0000.0001) //            Min. X spins =     1000000000
(PID.TID 0000.0001) //          Total. X spins =              0
(PID.TID 0000.0001) //            Avg. X spins =       0.00E+00
(PID.TID 0000.0001) //         No. Y exchanges =              0
(PID.TID 0000.0001) //            Max. Y spins =              0
(PID.TID 0000.0001) //            Min. Y spins =     1000000000
(PID.TID 0000.0001) //          Total. Y spins =              0
(PID.TID 0000.0001) //            Avg. Y spins =       0.00E+00
(PID.TID 0000.0001) // o Tile number: 000002
(PID.TID 0000.0001) //         No. X exchanges =              0
(PID.TID 0000.0001) //            Max. X spins =              0
(PID.TID 0000.0001) //            Min. X spins =     1000000000
(PID.TID 0000.0001) //          Total. X spins =              0
(PID.TID 0000.0001) //            Avg. X spins =       0.00E+00
(PID.TID 0000.0001) //         No. Y exchanges =              0
(PID.TID 0000.0001) //            Max. Y spins =              0
(PID.TID 0000.0001) //            Min. Y spins =     1000000000
(PID.TID 0000.0001) //          Total. Y spins =              0
(PID.TID 0000.0001) //            Avg. Y spins =       0.00E+00
(PID.TID 0000.0001) // o Thread number: 000001
(PID.TID 0000.0001) //            No. barriers =           6000
(PID.TID 0000.0001) //      Max. barrier spins =              1
(PID.TID 0000.0001) //      Min. barrier spins =              1
(PID.TID 0000.0001) //     Total barrier spins =           6000
(PID.TID 0000.0001) //      Avg. barrier spins =       1.00E+00
