(PID.TID 0000.0001) 
(PID.TID 0000.0001) // ======================================================
(PID.TID 0000.0001) //                      MITgcm UV
(PID.TID 0000.0001) //                      =========
(PID.TID 0000.0001) // ======================================================
(PID.TID 0000.0001) // execution environment starting up...
(PID.TID 0000.0001) // Run starting Wed Apr  1 14:19:48 1998
(PID.TID 0000.0001) // on melville.lcs.mit.edu
(PID.TID 0000.0001) // account cnh
(PID.TID 0000.0001) // MITgcm UV Release: $Name:  $
(PID.TID 0000.0001) 
(PID.TID 0000.0001) // =======================================================
(PID.TID 0000.0001) // Execution Environment parameter file "eedata"
(PID.TID 0000.0001) // =======================================================
(PID.TID 0000.0001) ># Example "eedata" file
(PID.TID 0000.0001) ># Lines beginning "#" are comments
(PID.TID 0000.0001) ># nTx - No. threads per process in X
(PID.TID 0000.0001) ># nTy - No. threads per process in Y
(PID.TID 0000.0001) > &EEPARMS
(PID.TID 0000.0001) > &
(PID.TID 0000.0001) ># Note: Some systems use & as the
(PID.TID 0000.0001) ># namelist terminator. Other systems
(PID.TID 0000.0001) ># use a / character (as shown here).
(PID.TID 0000.0001) 
(PID.TID 0000.0001) // =======================================================
(PID.TID 0000.0001) // Computational Grid Specification ( see files "SIZE.h" )
(PID.TID 0000.0001) //                                  ( and "eedata"       )
(PID.TID 0000.0001) // =======================================================
(PID.TID 0000.0001)      nPx =    1 ; /* No. processes in X */
(PID.TID 0000.0001)      nPy =    1 ; /* No. processes in Y */
(PID.TID 0000.0001)      nSx =    1 ; /* No. tiles in X per process */
(PID.TID 0000.0001)      nSy =    1 ; /* No. tiles in Y per process */
(PID.TID 0000.0001)      sNx =  128 ; /* Tile size in X */
(PID.TID 0000.0001)      sNy =   23 ; /* Tile size in Y */
(PID.TID 0000.0001)      OLx =    3 ; /* Tile overlap distance in X */
(PID.TID 0000.0001)      OLy =    3 ; /* Tile overlap distance in Y */
(PID.TID 0000.0001)      nTx =    1 ; /* No. threads in X per process */
(PID.TID 0000.0001)      nTy =    1 ; /* No. threads in Y per process */
(PID.TID 0000.0001)       Nr =    5 ; /* No. levels in the vertical   */
(PID.TID 0000.0001)       nX =  128 ; /* Total domain size in X ( = nPx*nSx*sNx ) */
(PID.TID 0000.0001)       nY =   23 ; /* Total domain size in Y ( = nPy*nSy*sNy ) */
(PID.TID 0000.0001)   nTiles =    1 ; /* Total no. tiles per process ( = nSx*nSy ) */
(PID.TID 0000.0001)   nProcs =    1 ; /* Total no. processes ( = nPx*nPy ) */
(PID.TID 0000.0001) nThreads =    1 ; /* Total no. threads per process ( = nTx*nTy ) */
(PID.TID 0000.0001) usingMPI =    F ; /* Flag used to control whether MPI is in use */
(PID.TID 0000.0001)                   /*  note: To execute a program with MPI calls */
(PID.TID 0000.0001)                   /*  it must be launched appropriately e.g     */
(PID.TID 0000.0001)                   /*  "mpirun -np 64 ......"                    */
(PID.TID 0000.0001) 
(PID.TID 0000.0001) // ======================================================
(PID.TID 0000.0001) // Mapping of tiles to threads
(PID.TID 0000.0001) // ======================================================
(PID.TID 0000.0001) // -o- Thread   1, tiles (   1:   1,   1:   1)
(PID.TID 0000.0001) 
(PID.TID 0000.0001) // ======================================================
(PID.TID 0000.0001) // Tile <-> Tile connectvity table
(PID.TID 0000.0001) // ======================================================
(PID.TID 0000.0001) // Tile number: 000001 (process no. = 000001)
(PID.TID 0000.0001) //        WEST: Tile = 000001, Process = 000001, Comm = put
(PID.TID 0000.0001) //                bi = 000001, bj = 000001
(PID.TID 0000.0001) //        EAST: Tile = 000001, Process = 000001, Comm = put
(PID.TID 0000.0001) //                bi = 000001, bj = 000001
(PID.TID 0000.0001) //       SOUTH: Tile = 000001, Process = 000001, Comm = put
(PID.TID 0000.0001) //                bi = 000001, bj = 000001
(PID.TID 0000.0001) //       NORTH: Tile = 000001, Process = 000001, Comm = put
(PID.TID 0000.0001) //                bi = 000001, bj = 000001
(PID.TID 0000.0001) 
(PID.TID 0000.0001) // =======================================================
(PID.TID 0000.0001) // Model parameter file "data"
(PID.TID 0000.0001) // =======================================================
(PID.TID 0000.0001) ># ====================
(PID.TID 0000.0001) ># | Model parameters |
(PID.TID 0000.0001) ># ====================
(PID.TID 0000.0001) >#
(PID.TID 0000.0001) ># Continuous equation parameters
(PID.TID 0000.0001) > &PARM01
(PID.TID 0000.0001) > tRef=281.089, 289.321, 307.191, 331.377, 432.413,
(PID.TID 0000.0001) > sRef=5*0.,
(PID.TID 0000.0001) > viscAr=1.E3,
(PID.TID 0000.0001) > viscAh=0.E6,
(PID.TID 0000.0001) > viscA4=0.E17,
(PID.TID 0000.0001) > no_slip_sides=.FALSE.,
(PID.TID 0000.0001) > no_slip_bottom=.FALSE.,
(PID.TID 0000.0001) > diffKhT=0.E3,
(PID.TID 0000.0001) > diffKrT=0.,
(PID.TID 0000.0001) > diffK4T=0.E17,
(PID.TID 0000.0001) > diffKrS=0.E2,
(PID.TID 0000.0001) > diffKhS=0.E3,
(PID.TID 0000.0001) > diffK4S=0.E17,
(PID.TID 0000.0001) > buoyancyRelation='ATMOSPHERIC',
(PID.TID 0000.0001) > eosType='IDEALGAS',
(PID.TID 0000.0001) > gravity=9.81,
(PID.TID 0000.0001) > rhonil=1.0,
(PID.TID 0000.0001) > rhoConst=1.0,
(PID.TID 0000.0001) > rigidLid=.FALSE.,
(PID.TID 0000.0001) > implicitFreeSurface=.TRUE.,
(PID.TID 0000.0001) > staggerTimeStep=.TRUE.,
(PID.TID 0000.0001) > nonHydrostatic=.FALSE.,
(PID.TID 0000.0001) > readBinaryPrec=64,
(PID.TID 0000.0001) > writeBinaryPrec=64,
(PID.TID 0000.0001) > hFacMin=1.0,
(PID.TID 0000.0001) > saltAdvScheme=3,
(PID.TID 0000.0001) > &
(PID.TID 0000.0001) >
(PID.TID 0000.0001) ># Elliptic solver parameters
(PID.TID 0000.0001) > &PARM02
(PID.TID 0000.0001) > cg2dMaxIters=200,
(PID.TID 0000.0001) >#cg2dTargetResidual=1.E-12,
(PID.TID 0000.0001) > cg2dTargetResWunit=1.E-18,
(PID.TID 0000.0001) > &
(PID.TID 0000.0001) >
(PID.TID 0000.0001) ># Time stepping parameters
(PID.TID 0000.0001) > &PARM03
(PID.TID 0000.0001) > niter0=8640,
(PID.TID 0000.0001) > nTimeSteps=10,
(PID.TID 0000.0001) >#endTime=31104000.,
(PID.TID 0000.0001) > deltaT=600.0,
(PID.TID 0000.0001) > abEps=0.1,
(PID.TID 0000.0001) > cAdjFreq=0.,
(PID.TID 0000.0001) > pChkptFreq=2592000.0,
(PID.TID 0000.0001) > chkptFreq=0.0,
(PID.TID 0000.0001) > dumpFreq=2592000.0,
(PID.TID 0000.0001) > taveFreq=2592000.0,
(PID.TID 0000.0001) >#monitorFreq=7200.0,
(PID.TID 0000.0001) > monitorFreq=1.0,
(PID.TID 0000.0001) > &
(PID.TID 0000.0001) >
(PID.TID 0000.0001) ># Gridding parameters
(PID.TID 0000.0001) > &PARM04
(PID.TID 0000.0001) > usingCartesianGrid=.FALSE.,
(PID.TID 0000.0001) > usingSphericalPolarGrid=.TRUE.,
(PID.TID 0000.0001) > delX=128*2.8125,
(PID.TID 0000.0001) > delY=23*2.8125,
(PID.TID 0000.0001) > delR=1.E4, 2.5E4, 3.E4, 2.E4, 1.5E4,
(PID.TID 0000.0001) > Ro_SeaLevel=1.E5,
(PID.TID 0000.0001) > groundAtK1=.TRUE.,
(PID.TID 0000.0001) > phiMin=-32.34375,
(PID.TID 0000.0001) > rSphere=6370.E3,
(PID.TID 0000.0001) > &
(PID.TID 0000.0001) >
(PID.TID 0000.0001) ># Input datasets
(PID.TID 0000.0001) > &PARM05
(PID.TID 0000.0001) > &
(PID.TID 0000.0001) 
(PID.TID 0000.0001) %MON XC_max                       =   3.5859375000000E+02
(PID.TID 0000.0001) %MON XC_min                       =   1.4062500000000E+00
(PID.TID 0000.0001) %MON XC_mean                      =   1.8000000000000E+02
(PID.TID 0000.0001) %MON XC_sd                        =   1.0391987692599E+02
(PID.TID 0000.0001) %MON XG_max                       =   3.5718750000000E+02
(PID.TID 0000.0001) %MON XG_min                       =   2.8125000000000E+00
(PID.TID 0000.0001) %MON XG_mean                      =   1.8000000000000E+02
(PID.TID 0000.0001) %MON XG_sd                        =   1.0310795313651E+02
(PID.TID 0000.0001) %MON DXC_max                      =   3.1268664380261E+05
(PID.TID 0000.0001) %MON DXC_min                      =   2.6820028035446E+05
(PID.TID 0000.0001) %MON DXC_mean                     =   2.9637191437594E+05
(PID.TID 0000.0001) %MON DXC_sd                       =   1.4453062273565E+04
(PID.TID 0000.0001) %MON DXF_max                      =   3.1268664380261E+05
(PID.TID 0000.0001) %MON DXF_min                      =   2.6820028035446E+05
(PID.TID 0000.0001) %MON DXF_mean                     =   2.9637191437594E+05
(PID.TID 0000.0001) %MON DXF_sd                       =   1.4453062273565E+04
(PID.TID 0000.0001) %MON DXG_max                      =   3.1259246843155E+05
(PID.TID 0000.0001) %MON DXG_min                      =   2.6417442582260E+05
(PID.TID 0000.0001) %MON DXG_mean                     =   2.9628265269637E+05
(PID.TID 0000.0001) %MON DXG_sd                       =   1.4650049182776E+04
(PID.TID 0000.0001) %MON DXV_max                      =   3.1259246843155E+05
(PID.TID 0000.0001) %MON DXV_min                      =   2.6417442582260E+05
(PID.TID 0000.0001) %MON DXV_mean                     =   2.9628265269637E+05
(PID.TID 0000.0001) %MON DXV_sd                       =   1.4650049182776E+04
(PID.TID 0000.0001) %MON YC_max                       =   3.0937500000000E+01
(PID.TID 0000.0001) %MON YC_min                       =  -3.0937500000000E+01
(PID.TID 0000.0001) %MON YC_mean                      =   0.0000000000000E+00
(PID.TID 0000.0001) %MON YC_sd                        =   1.9075303077540E+01
(PID.TID 0000.0001) %MON YG_max                       =   2.9531250000000E+01
(PID.TID 0000.0001) %MON YG_min                       =  -3.2343750000000E+01
(PID.TID 0000.0001) %MON YG_mean                      =  -1.4062500000000E+00
(PID.TID 0000.0001) %MON YG_sd                        =   1.8656014445749E+01
(PID.TID 0000.0001) %MON DYC_max                      =   3.1268664380261E+05
(PID.TID 0000.0001) %MON DYC_min                      =   3.1268664380261E+05
(PID.TID 0000.0001) %MON DYC_mean                     =   3.1268664380262E+05
(PID.TID 0000.0001) %MON DYC_sd                       =   7.2177499532700E-09
(PID.TID 0000.0001) %MON DYF_max                      =   3.1268664380261E+05
(PID.TID 0000.0001) %MON DYF_min                      =   3.1268664380261E+05
(PID.TID 0000.0001) %MON DYF_mean                     =   3.1268664380262E+05
(PID.TID 0000.0001) %MON DYF_sd                       =   7.2177499532700E-09
(PID.TID 0000.0001) %MON DYG_max                      =   3.1268664380261E+05
(PID.TID 0000.0001) %MON DYG_min                      =   3.1268664380261E+05
(PID.TID 0000.0001) %MON DYG_mean                     =   3.1268664380262E+05
(PID.TID 0000.0001) %MON DYG_sd                       =   7.2177499532700E-09
(PID.TID 0000.0001) %MON DYU_max                      =   3.1268664380261E+05
(PID.TID 0000.0001) %MON DYU_min                      =   3.1268664380261E+05
(PID.TID 0000.0001) %MON DYU_mean                     =   3.1268664380262E+05
(PID.TID 0000.0001) %MON DYU_sd                       =   7.2177499532700E-09
(PID.TID 0000.0001) %MON RA_max                       =   9.7763121221868E+10
(PID.TID 0000.0001) %MON RA_min                       =   8.3854226074921E+10
(PID.TID 0000.0001) %MON RA_mean                      =   9.2662235391748E+10
(PID.TID 0000.0001) %MON RA_sd                        =   4.5188258183799E+09
(PID.TID 0000.0001) %MON RAW_max                      =   9.7763121221868E+10
(PID.TID 0000.0001) %MON RAW_min                      =   8.3854226074921E+10
(PID.TID 0000.0001) %MON RAW_mean                     =   9.2662235391748E+10
(PID.TID 0000.0001) %MON RAW_sd                       =   4.5188258183799E+09
(PID.TID 0000.0001) %MON RAS_max                      =   9.7733676797555E+10
(PID.TID 0000.0001) %MON RAS_min                      =   8.2595521514234E+10
(PID.TID 0000.0001) %MON RAS_mean                     =   9.2634327258881E+10
(PID.TID 0000.0001) %MON RAS_sd                       =   4.5804148099980E+09
(PID.TID 0000.0001) %MON RAZ_max                      =   9.7733676797555E+10
(PID.TID 0000.0001) %MON RAZ_min                      =   8.2595521514234E+10
(PID.TID 0000.0001) %MON RAZ_mean                     =   9.2634327258881E+10
(PID.TID 0000.0001) %MON RAZ_sd                       =   4.5804148099980E+09
(PID.TID 0000.0001) // =======================================================
(PID.TID 0000.0001) // Field Model R_low (ini_masks_etc) at iteration          1
(PID.TID 0000.0001) // CMIN =          1.000000000000000E+32
(PID.TID 0000.0001) // CMAX =         -1.000000000000000E+32
(PID.TID 0000.0001) // CINT =          0.000000000000000E+00
(PID.TID 0000.0001) // SYMBOLS (CMIN->CMAX): -abcdefghijklmnopqrstuvwxyz+
(PID.TID 0000.0001) //                  0.0: .
(PID.TID 0000.0001) // RANGE I (Lo:Hi:Step):(  -2: 131:   1)
(PID.TID 0000.0001) // RANGE J (Lo:Hi:Step):(  26:  -2:  -1)
(PID.TID 0000.0001) // RANGE K (Lo:Hi:Step):(   1:   1:   1)
(PID.TID 0000.0001) // =======================================================
(PID.TID 0000.0001) K =   1
(PID.TID 0000.0001) //                I=7       I=17      I=27      I=37      I=47      I=57      I=67      I=77      I=87      I=97      I=107     I=117     I=127
(PID.TID 0000.0001) // |--J--|**0123456|890123456|890123456|890123456|890123456|890123456|890123456|890123456|890123456|890123456|890123456|890123456|890123456|8901
(PID.TID 0000.0001) //     26 ......................................................................................................................................
(PID.TID 0000.0001) //     25 ......................................................................................................................................
(PID.TID 0000.0001) //     24 ......................................................................................................................................
(PID.TID 0000.0001) //     23 ......................................................................................................................................
(PID.TID 0000.0001) //     22 ......................................................................................................................................
(PID.TID 0000.0001) //     21 ......................................................................................................................................
(PID.TID 0000.0001) //     20 ......................................................................................................................................
(PID.TID 0000.0001) //     19 ......................................................................................................................................
(PID.TID 0000.0001) //     18 ......................................................................................................................................
(PID.TID 0000.0001) //     17 ......................................................................................................................................
(PID.TID 0000.0001) //     16 ......................................................................................................................................
(PID.TID 0000.0001) //     15 ......................................................................................................................................
(PID.TID 0000.0001) //     14 ......................................................................................................................................
(PID.TID 0000.0001) //     13 ......................................................................................................................................
(PID.TID 0000.0001) //     12 ......................................................................................................................................
(PID.TID 0000.0001) //     11 ......................................................................................................................................
(PID.TID 0000.0001) //     10 ......................................................................................................................................
(PID.TID 0000.0001) //      9 ......................................................................................................................................
(PID.TID 0000.0001) //      8 ......................................................................................................................................
(PID.TID 0000.0001) //      7 ......................................................................................................................................
(PID.TID 0000.0001) //      6 ......................................................................................................................................
(PID.TID 0000.0001) //      5 ......................................................................................................................................
(PID.TID 0000.0001) //      4 ......................................................................................................................................
(PID.TID 0000.0001) //      3 ......................................................................................................................................
(PID.TID 0000.0001) //      2 ......................................................................................................................................
(PID.TID 0000.0001) //      1 ......................................................................................................................................
(PID.TID 0000.0001) //      0 ......................................................................................................................................
(PID.TID 0000.0001) //     -1 ......................................................................................................................................
(PID.TID 0000.0001) //     -2 ......................................................................................................................................
(PID.TID 0000.0001) // =======================================================
(PID.TID 0000.0001) // END OF FIELD                                          =
(PID.TID 0000.0001) // =======================================================
(PID.TID 0000.0001) 
(PID.TID 0000.0001) // =======================================================
(PID.TID 0000.0001) // Field Model Ro_surf (ini_masks_etc) at iteration          1
(PID.TID 0000.0001) // CMIN =          1.000000000000000E+05
(PID.TID 0000.0001) // CMAX =          1.000000000000000E+05
(PID.TID 0000.0001) // CINT =          0.000000000000000E+00
(PID.TID 0000.0001) // SYMBOLS (CMIN->CMAX): -abcdefghijklmnopqrstuvwxyz+
(PID.TID 0000.0001) //                  0.0: .
(PID.TID 0000.0001) // RANGE I (Lo:Hi:Step):(  -2: 131:   1)
(PID.TID 0000.0001) // RANGE J (Lo:Hi:Step):(  26:  -2:  -1)
(PID.TID 0000.0001) // RANGE K (Lo:Hi:Step):(   1:   1:   1)
(PID.TID 0000.0001) // =======================================================
(PID.TID 0000.0001) K =   1
(PID.TID 0000.0001) //                I=7       I=17      I=27      I=37      I=47      I=57      I=67      I=77      I=87      I=97      I=107     I=117     I=127
(PID.TID 0000.0001) // |--J--|**0123456|890123456|890123456|890123456|890123456|890123456|890123456|890123456|890123456|890123456|890123456|890123456|890123456|8901
(PID.TID 0000.0001) //     26 ......................................................................................................................................
(PID.TID 0000.0001) //     25 ......................................................................................................................................
(PID.TID 0000.0001) //     24 ......................................................................................................................................
(PID.TID 0000.0001) //     23 --------------------------------------------------------------------------------------------------------------------------------------
(PID.TID 0000.0001) //     22 --------------------------------------------------------------------------------------------------------------------------------------
(PID.TID 0000.0001) //     21 --------------------------------------------------------------------------------------------------------------------------------------
(PID.TID 0000.0001) //     20 --------------------------------------------------------------------------------------------------------------------------------------
(PID.TID 0000.0001) //     19 --------------------------------------------------------------------------------------------------------------------------------------
(PID.TID 0000.0001) //     18 --------------------------------------------------------------------------------------------------------------------------------------
(PID.TID 0000.0001) //     17 --------------------------------------------------------------------------------------------------------------------------------------
(PID.TID 0000.0001) //     16 --------------------------------------------------------------------------------------------------------------------------------------
(PID.TID 0000.0001) //     15 --------------------------------------------------------------------------------------------------------------------------------------
(PID.TID 0000.0001) //     14 --------------------------------------------------------------------------------------------------------------------------------------
(PID.TID 0000.0001) //     13 --------------------------------------------------------------------------------------------------------------------------------------
(PID.TID 0000.0001) //     12 --------------------------------------------------------------------------------------------------------------------------------------
(PID.TID 0000.0001) //     11 --------------------------------------------------------------------------------------------------------------------------------------
(PID.TID 0000.0001) //     10 --------------------------------------------------------------------------------------------------------------------------------------
(PID.TID 0000.0001) //      9 --------------------------------------------------------------------------------------------------------------------------------------
(PID.TID 0000.0001) //      8 --------------------------------------------------------------------------------------------------------------------------------------
(PID.TID 0000.0001) //      7 --------------------------------------------------------------------------------------------------------------------------------------
(PID.TID 0000.0001) //      6 --------------------------------------------------------------------------------------------------------------------------------------
(PID.TID 0000.0001) //      5 --------------------------------------------------------------------------------------------------------------------------------------
(PID.TID 0000.0001) //      4 --------------------------------------------------------------------------------------------------------------------------------------
(PID.TID 0000.0001) //      3 --------------------------------------------------------------------------------------------------------------------------------------
(PID.TID 0000.0001) //      2 --------------------------------------------------------------------------------------------------------------------------------------
(PID.TID 0000.0001) //      1 --------------------------------------------------------------------------------------------------------------------------------------
(PID.TID 0000.0001) //      0 ......................................................................................................................................
(PID.TID 0000.0001) //     -1 ......................................................................................................................................
(PID.TID 0000.0001) //     -2 ......................................................................................................................................
(PID.TID 0000.0001) // =======================================================
(PID.TID 0000.0001) // END OF FIELD                                          =
(PID.TID 0000.0001) // =======================================================
(PID.TID 0000.0001) 
(PID.TID 0000.0001) // =======================================================
(PID.TID 0000.0001) // Field hFacC at iteration          1
(PID.TID 0000.0001) // CMIN =          1.000000000000000E+00
(PID.TID 0000.0001) // CMAX =          1.000000000000000E+00
(PID.TID 0000.0001) // CINT =          0.000000000000000E+00
(PID.TID 0000.0001) // SYMBOLS (CMIN->CMAX): -abcdefghijklmnopqrstuvwxyz+
(PID.TID 0000.0001) //                  0.0: .
(PID.TID 0000.0001) // RANGE I (Lo:Hi:Step):(  -2: 131:   1)
(PID.TID 0000.0001) // RANGE J (Lo:Hi:Step):(  26:  -2:  -1)
(PID.TID 0000.0001) // RANGE K (Lo:Hi:Step):(   1:   1:   1)
(PID.TID 0000.0001) // =======================================================
(PID.TID 0000.0001) K =   1
(PID.TID 0000.0001) //                I=7       I=17      I=27      I=37      I=47      I=57      I=67      I=77      I=87      I=97      I=107     I=117     I=127
(PID.TID 0000.0001) // |--J--|**0123456|890123456|890123456|890123456|890123456|890123456|890123456|890123456|890123456|890123456|890123456|890123456|890123456|8901
(PID.TID 0000.0001) //     26 ......................................................................................................................................
(PID.TID 0000.0001) //     25 ......................................................................................................................................
(PID.TID 0000.0001) //     24 ......................................................................................................................................
(PID.TID 0000.0001) //     23 --------------------------------------------------------------------------------------------------------------------------------------
(PID.TID 0000.0001) //     22 --------------------------------------------------------------------------------------------------------------------------------------
(PID.TID 0000.0001) //     21 --------------------------------------------------------------------------------------------------------------------------------------
(PID.TID 0000.0001) //     20 --------------------------------------------------------------------------------------------------------------------------------------
(PID.TID 0000.0001) //     19 --------------------------------------------------------------------------------------------------------------------------------------
(PID.TID 0000.0001) //     18 --------------------------------------------------------------------------------------------------------------------------------------
(PID.TID 0000.0001) //     17 --------------------------------------------------------------------------------------------------------------------------------------
(PID.TID 0000.0001) //     16 --------------------------------------------------------------------------------------------------------------------------------------
(PID.TID 0000.0001) //     15 --------------------------------------------------------------------------------------------------------------------------------------
(PID.TID 0000.0001) //     14 --------------------------------------------------------------------------------------------------------------------------------------
(PID.TID 0000.0001) //     13 --------------------------------------------------------------------------------------------------------------------------------------
(PID.TID 0000.0001) //     12 --------------------------------------------------------------------------------------------------------------------------------------
(PID.TID 0000.0001) //     11 --------------------------------------------------------------------------------------------------------------------------------------
(PID.TID 0000.0001) //     10 --------------------------------------------------------------------------------------------------------------------------------------
(PID.TID 0000.0001) //      9 --------------------------------------------------------------------------------------------------------------------------------------
(PID.TID 0000.0001) //      8 --------------------------------------------------------------------------------------------------------------------------------------
(PID.TID 0000.0001) //      7 --------------------------------------------------------------------------------------------------------------------------------------
(PID.TID 0000.0001) //      6 --------------------------------------------------------------------------------------------------------------------------------------
(PID.TID 0000.0001) //      5 --------------------------------------------------------------------------------------------------------------------------------------
(PID.TID 0000.0001) //      4 --------------------------------------------------------------------------------------------------------------------------------------
(PID.TID 0000.0001) //      3 --------------------------------------------------------------------------------------------------------------------------------------
(PID.TID 0000.0001) //      2 --------------------------------------------------------------------------------------------------------------------------------------
(PID.TID 0000.0001) //      1 --------------------------------------------------------------------------------------------------------------------------------------
(PID.TID 0000.0001) //      0 ......................................................................................................................................
(PID.TID 0000.0001) //     -1 ......................................................................................................................................
(PID.TID 0000.0001) //     -2 ......................................................................................................................................
(PID.TID 0000.0001) // =======================================================
(PID.TID 0000.0001) // END OF FIELD                                          =
(PID.TID 0000.0001) // =======================================================
(PID.TID 0000.0001) 
(PID.TID 0000.0001) // =======================================================
(PID.TID 0000.0001) // Field hFacW at iteration          1
(PID.TID 0000.0001) // CMIN =          1.000000000000000E+00
(PID.TID 0000.0001) // CMAX =          1.000000000000000E+00
(PID.TID 0000.0001) // CINT =          0.000000000000000E+00
(PID.TID 0000.0001) // SYMBOLS (CMIN->CMAX): -abcdefghijklmnopqrstuvwxyz+
(PID.TID 0000.0001) //                  0.0: .
(PID.TID 0000.0001) // RANGE I (Lo:Hi:Step):(  -2: 131:   1)
(PID.TID 0000.0001) // RANGE J (Lo:Hi:Step):(  26:  -2:  -1)
(PID.TID 0000.0001) // RANGE K (Lo:Hi:Step):(   1:   1:   1)
(PID.TID 0000.0001) // =======================================================
(PID.TID 0000.0001) K =   1
(PID.TID 0000.0001) //                I=7       I=17      I=27      I=37      I=47      I=57      I=67      I=77      I=87      I=97      I=107     I=117     I=127
(PID.TID 0000.0001) // |--J--|**0123456|890123456|890123456|890123456|890123456|890123456|890123456|890123456|890123456|890123456|890123456|890123456|890123456|8901
(PID.TID 0000.0001) //     26 --------------------------------------------------------------------------------------------------------------------------------------
(PID.TID 0000.0001) //     25 --------------------------------------------------------------------------------------------------------------------------------------
(PID.TID 0000.0001) //     24 --------------------------------------------------------------------------------------------------------------------------------------
(PID.TID 0000.0001) //     23 --------------------------------------------------------------------------------------------------------------------------------------
(PID.TID 0000.0001) //     22 --------------------------------------------------------------------------------------------------------------------------------------
(PID.TID 0000.0001) //     21 --------------------------------------------------------------------------------------------------------------------------------------
(PID.TID 0000.0001) //     20 --------------------------------------------------------------------------------------------------------------------------------------
(PID.TID 0000.0001) //     19 --------------------------------------------------------------------------------------------------------------------------------------
(PID.TID 0000.0001) //     18 --------------------------------------------------------------------------------------------------------------------------------------
(PID.TID 0000.0001) //     17 --------------------------------------------------------------------------------------------------------------------------------------
(PID.TID 0000.0001) //     16 --------------------------------------------------------------------------------------------------------------------------------------
(PID.TID 0000.0001) //     15 --------------------------------------------------------------------------------------------------------------------------------------
(PID.TID 0000.0001) //     14 --------------------------------------------------------------------------------------------------------------------------------------
(PID.TID 0000.0001) //     13 --------------------------------------------------------------------------------------------------------------------------------------
(PID.TID 0000.0001) //     12 --------------------------------------------------------------------------------------------------------------------------------------
(PID.TID 0000.0001) //     11 --------------------------------------------------------------------------------------------------------------------------------------
(PID.TID 0000.0001) //     10 --------------------------------------------------------------------------------------------------------------------------------------
(PID.TID 0000.0001) //      9 --------------------------------------------------------------------------------------------------------------------------------------
(PID.TID 0000.0001) //      8 --------------------------------------------------------------------------------------------------------------------------------------
(PID.TID 0000.0001) //      7 --------------------------------------------------------------------------------------------------------------------------------------
(PID.TID 0000.0001) //      6 --------------------------------------------------------------------------------------------------------------------------------------
(PID.TID 0000.0001) //      5 --------------------------------------------------------------------------------------------------------------------------------------
(PID.TID 0000.0001) //      4 --------------------------------------------------------------------------------------------------------------------------------------
(PID.TID 0000.0001) //      3 --------------------------------------------------------------------------------------------------------------------------------------
(PID.TID 0000.0001) //      2 --------------------------------------------------------------------------------------------------------------------------------------
(PID.TID 0000.0001) //      1 --------------------------------------------------------------------------------------------------------------------------------------
(PID.TID 0000.0001) //      0 --------------------------------------------------------------------------------------------------------------------------------------
(PID.TID 0000.0001) //     -1 --------------------------------------------------------------------------------------------------------------------------------------
(PID.TID 0000.0001) //     -2 --------------------------------------------------------------------------------------------------------------------------------------
(PID.TID 0000.0001) // =======================================================
(PID.TID 0000.0001) // END OF FIELD                                          =
(PID.TID 0000.0001) // =======================================================
(PID.TID 0000.0001) 
(PID.TID 0000.0001) // =======================================================
(PID.TID 0000.0001) // Field hFacS at iteration          1
(PID.TID 0000.0001) // CMIN =          1.000000000000000E+00
(PID.TID 0000.0001) // CMAX =          1.000000000000000E+00
(PID.TID 0000.0001) // CINT =          0.000000000000000E+00
(PID.TID 0000.0001) // SYMBOLS (CMIN->CMAX): -abcdefghijklmnopqrstuvwxyz+
(PID.TID 0000.0001) //                  0.0: .
(PID.TID 0000.0001) // RANGE I (Lo:Hi:Step):(  -2: 131:   1)
(PID.TID 0000.0001) // RANGE J (Lo:Hi:Step):(  26:  -2:  -1)
(PID.TID 0000.0001) // RANGE K (Lo:Hi:Step):(   1:   1:   1)
(PID.TID 0000.0001) // =======================================================
(PID.TID 0000.0001) K =   1
(PID.TID 0000.0001) //                I=7       I=17      I=27      I=37      I=47      I=57      I=67      I=77      I=87      I=97      I=107     I=117     I=127
(PID.TID 0000.0001) // |--J--|**0123456|890123456|890123456|890123456|890123456|890123456|890123456|890123456|890123456|890123456|890123456|890123456|890123456|8901
(PID.TID 0000.0001) //     26 --------------------------------------------------------------------------------------------------------------------------------------
(PID.TID 0000.0001) //     25 --------------------------------------------------------------------------------------------------------------------------------------
(PID.TID 0000.0001) //     24 ......................................................................................................................................
(PID.TID 0000.0001) //     23 --------------------------------------------------------------------------------------------------------------------------------------
(PID.TID 0000.0001) //     22 --------------------------------------------------------------------------------------------------------------------------------------
(PID.TID 0000.0001) //     21 --------------------------------------------------------------------------------------------------------------------------------------
(PID.TID 0000.0001) //     20 --------------------------------------------------------------------------------------------------------------------------------------
(PID.TID 0000.0001) //     19 --------------------------------------------------------------------------------------------------------------------------------------
(PID.TID 0000.0001) //     18 --------------------------------------------------------------------------------------------------------------------------------------
(PID.TID 0000.0001) //     17 --------------------------------------------------------------------------------------------------------------------------------------
(PID.TID 0000.0001) //     16 --------------------------------------------------------------------------------------------------------------------------------------
(PID.TID 0000.0001) //     15 --------------------------------------------------------------------------------------------------------------------------------------
(PID.TID 0000.0001) //     14 --------------------------------------------------------------------------------------------------------------------------------------
(PID.TID 0000.0001) //     13 --------------------------------------------------------------------------------------------------------------------------------------
(PID.TID 0000.0001) //     12 --------------------------------------------------------------------------------------------------------------------------------------
(PID.TID 0000.0001) //     11 --------------------------------------------------------------------------------------------------------------------------------------
(PID.TID 0000.0001) //     10 --------------------------------------------------------------------------------------------------------------------------------------
(PID.TID 0000.0001) //      9 --------------------------------------------------------------------------------------------------------------------------------------
(PID.TID 0000.0001) //      8 --------------------------------------------------------------------------------------------------------------------------------------
(PID.TID 0000.0001) //      7 --------------------------------------------------------------------------------------------------------------------------------------
(PID.TID 0000.0001) //      6 --------------------------------------------------------------------------------------------------------------------------------------
(PID.TID 0000.0001) //      5 --------------------------------------------------------------------------------------------------------------------------------------
(PID.TID 0000.0001) //      4 --------------------------------------------------------------------------------------------------------------------------------------
(PID.TID 0000.0001) //      3 --------------------------------------------------------------------------------------------------------------------------------------
(PID.TID 0000.0001) //      2 --------------------------------------------------------------------------------------------------------------------------------------
(PID.TID 0000.0001) //      1 ......................................................................................................................................
(PID.TID 0000.0001) //      0 --------------------------------------------------------------------------------------------------------------------------------------
(PID.TID 0000.0001) //     -1 --------------------------------------------------------------------------------------------------------------------------------------
(PID.TID 0000.0001) //     -2 --------------------------------------------------------------------------------------------------------------------------------------
(PID.TID 0000.0001) // =======================================================
(PID.TID 0000.0001) // END OF FIELD                                          =
(PID.TID 0000.0001) // =======================================================
(PID.TID 0000.0001) 
(PID.TID 0000.0001) %MON fCori_max                    =   7.4773213164249E-05
(PID.TID 0000.0001) %MON fCori_min                    =  -7.4773213164249E-05
(PID.TID 0000.0001) %MON fCori_mean                   =   6.3527471044073E-22
(PID.TID 0000.0001) %MON fCori_sd                     =   4.6907817211331E-05
(PID.TID 0000.0001) %MON fCoriG_max                   =   7.1689136096147E-05
(PID.TID 0000.0001) %MON fCoriG_min                   =  -7.7812249644691E-05
(PID.TID 0000.0001) %MON fCoriG_mean                  =  -3.3831412888996E-06
(PID.TID 0000.0001) %MON fCoriG_sd                    =   4.5863229796664E-05
(PID.TID 0000.0001)  PACKAGE_INIT: opening data.pkg
(PID.TID 0000.0001)  OPEN_COPY_DATA_FILE: opening file data.pkg
(PID.TID 0000.0001) // =======================================================
(PID.TID 0000.0001) // Parameter file "data.pkg"
(PID.TID 0000.0001) // =======================================================
(PID.TID 0000.0001) ># Packages
(PID.TID 0000.0001) > &PACKAGES
(PID.TID 0000.0001) > useAIM=.TRUE.,
(PID.TID 0000.0001) > useSHAP_FILT=.TRUE.,
(PID.TID 0000.0001) > &
(PID.TID 0000.0001) 
(PID.TID 0000.0001)  PACKAGE_INIT: finished reading data.pkg
(PID.TID 0000.0001)  SHAP_FILT_READPARMS: opening data.shap
(PID.TID 0000.0001)  OPEN_COPY_DATA_FILE: opening file data.shap
(PID.TID 0000.0001) // =======================================================
(PID.TID 0000.0001) // Parameter file "data.shap"
(PID.TID 0000.0001) // =======================================================
(PID.TID 0000.0001) ># Packages
(PID.TID 0000.0001) > &SHAP_PARM01
(PID.TID 0000.0001) > nShapT=4,
(PID.TID 0000.0001) > nShapUV=4,
(PID.TID 0000.0001) > Shap_funct=4,
(PID.TID 0000.0001) > &
(PID.TID 0000.0001) 
(PID.TID 0000.0001)  SHAP_FILT_READPARMS: finished reading data.shap
 Shap_funct, nShap_Tr,UV _Phys=           4           4           4           0
            0
 Shap_Trtau,Shap_uvtau=   600.0000000000000        600.0000000000000     
(PID.TID 0000.0001) // CG2D normalisation factor =          0.8577286100002721600000000E-05
(PID.TID 0000.0001) 
 ini_cg2d: sumArea,cg2dTolerance =  2.72797620993307E+14  3.89977207109950E-12
(PID.TID 0000.0001) // =======================================================
(PID.TID 0000.0001) // Model configuration
(PID.TID 0000.0001) // =======================================================
(PID.TID 0000.0001) //
(PID.TID 0000.0001) // "Physical" paramters ( PARM01 in namelist )
(PID.TID 0000.0001) //
(PID.TID 0000.0001) tRef =   /* Reference temperature profile ( oC or oK ) */
(PID.TID 0000.0001)                 2.810890000000000E+02,      /* K =  1 */
(PID.TID 0000.0001)                 2.893210000000000E+02,      /* K =  2 */
(PID.TID 0000.0001)                 3.071910000000000E+02,      /* K =  3 */
(PID.TID 0000.0001)                 3.313770000000000E+02,      /* K =  4 */
(PID.TID 0000.0001)                 4.324130000000000E+02       /* K =  5 */
(PID.TID 0000.0001)     ;
(PID.TID 0000.0001) sRef =   /* Reference salinity profile ( ppt ) */
(PID.TID 0000.0001)     5 @  0.000000000000000E+00              /* K =  1:  5 */
(PID.TID 0000.0001)     ;
(PID.TID 0000.0001) viscAh =   /* Lateral eddy viscosity ( m^2/s ) */
(PID.TID 0000.0001)                 0.000000000000000E+00
(PID.TID 0000.0001)     ;
(PID.TID 0000.0001) viscAh =   /* Lateral biharmonic viscosity ( m^4/s ) */
(PID.TID 0000.0001)                 0.000000000000000E+00
(PID.TID 0000.0001)     ;
(PID.TID 0000.0001) no_slip_sides =  /* Viscous BCs: No-slip sides */
(PID.TID 0000.0001)                   F
(PID.TID 0000.0001)     ;
(PID.TID 0000.0001) viscAr =   /* Vertical eddy viscosity ( units of r^2/s ) */
(PID.TID 0000.0001)                 1.000000000000000E+03
(PID.TID 0000.0001)     ;
(PID.TID 0000.0001) diffKhT =   /* Laplacian diffusion of heat laterally ( m^2/s ) */
(PID.TID 0000.0001)                 0.000000000000000E+00
(PID.TID 0000.0001)     ;
(PID.TID 0000.0001) diffK4T =   /* Bihaarmonic diffusion of heat laterally ( m^4/s ) */
(PID.TID 0000.0001)                 0.000000000000000E+00
(PID.TID 0000.0001)     ;
(PID.TID 0000.0001) diffKzT =   /* Laplacian diffusion of heat vertically ( m^2/s ) */
(PID.TID 0000.0001)                 1.234567000000000E+05
(PID.TID 0000.0001)     ;
(PID.TID 0000.0001) diffKrT =   /* Laplacian diffusion of heat vertically ( m^2/s ) */
(PID.TID 0000.0001)                 0.000000000000000E+00
(PID.TID 0000.0001)     ;
(PID.TID 0000.0001) diffKhS =   /* Laplacian diffusion of salt laterally ( m^2/s ) */
(PID.TID 0000.0001)                 0.000000000000000E+00
(PID.TID 0000.0001)     ;
(PID.TID 0000.0001) diffK4S =   /* Bihaarmonic diffusion of salt laterally ( m^4/s ) */
(PID.TID 0000.0001)                 0.000000000000000E+00
(PID.TID 0000.0001)     ;
(PID.TID 0000.0001) diffKzS =   /* Laplacian diffusion of salt vertically ( m^2/s ) */
(PID.TID 0000.0001)                 1.234567000000000E+05
(PID.TID 0000.0001)     ;
(PID.TID 0000.0001) diffKrS =   /* Laplacian diffusion of salt vertically ( m^2/s ) */
(PID.TID 0000.0001)                 0.000000000000000E+00
(PID.TID 0000.0001)     ;
(PID.TID 0000.0001) tAlpha =   /* Linear EOS thermal expansion coefficient ( 1/degree ) */
(PID.TID 0000.0001)                 2.000000000000000E-04
(PID.TID 0000.0001)     ;
(PID.TID 0000.0001) sBeta =   /* Linear EOS haline contraction coefficient ( 1/ppt ) */
(PID.TID 0000.0001)                 7.400000000000001E-04
(PID.TID 0000.0001)     ;
(PID.TID 0000.0001) rhonil =   /* Reference density ( kg/m^3 ) */
(PID.TID 0000.0001)                 1.000000000000000E+00
(PID.TID 0000.0001)     ;
(PID.TID 0000.0001) rhoConst =   /* Reference density ( kg/m^3 ) */
(PID.TID 0000.0001)                 1.000000000000000E+00
(PID.TID 0000.0001)     ;
(PID.TID 0000.0001) gravity =   /* Gravitational acceleration ( m/s^2 ) */
(PID.TID 0000.0001)                 9.810000000000001E+00
(PID.TID 0000.0001)     ;
(PID.TID 0000.0001) gBaro =   /* Barotropic gravity ( m/s^2 ) */
(PID.TID 0000.0001)                 9.810000000000001E+00
(PID.TID 0000.0001)     ;
(PID.TID 0000.0001) f0 =   /* Reference coriolis parameter ( 1/s ) */
(PID.TID 0000.0001)                 1.000000000000000E-04
(PID.TID 0000.0001)     ;
(PID.TID 0000.0001) beta =   /* Beta ( 1/(m.s) ) */
(PID.TID 0000.0001)                 9.999999999999998E-12
(PID.TID 0000.0001)     ;
(PID.TID 0000.0001) freeSurfFac =   /* Implicit free surface factor */
(PID.TID 0000.0001)                 1.000000000000000E+00
(PID.TID 0000.0001)     ;
(PID.TID 0000.0001) implicitFreeSurface =   /* Implicit free surface on/off flag */
(PID.TID 0000.0001)                   T
(PID.TID 0000.0001)     ;
(PID.TID 0000.0001) rigidLid =   /* Rigid lid on/off flag */
(PID.TID 0000.0001)                   F
(PID.TID 0000.0001)     ;
(PID.TID 0000.0001) implicSurfPress =   /* Surface Pressure implicit factor (0-1)*/
(PID.TID 0000.0001)                 1.000000000000000E+00
(PID.TID 0000.0001)     ;
(PID.TID 0000.0001) implicDiv2Dflow =   /* Barot. Flow Div. implicit factor (0-1)*/
(PID.TID 0000.0001)                 1.000000000000000E+00
(PID.TID 0000.0001)     ;
(PID.TID 0000.0001) staggerTimeStep =   /* Stagger time stepping on/off flag */
(PID.TID 0000.0001)                   T
(PID.TID 0000.0001)     ;
(PID.TID 0000.0001) momStepping =  /* Momentum equation on/off flag */
(PID.TID 0000.0001)                   T
(PID.TID 0000.0001)     ;
(PID.TID 0000.0001) momAdvection =  /* Momentum advection on/off flag */
(PID.TID 0000.0001)                   T
(PID.TID 0000.0001)     ;
(PID.TID 0000.0001) momViscosity =  /* Momentum viscosity on/off flag */
(PID.TID 0000.0001)                   T
(PID.TID 0000.0001)     ;
(PID.TID 0000.0001) useCoriolis =  /* Coriolis on/off flag */
(PID.TID 0000.0001)                   T
(PID.TID 0000.0001)     ;
(PID.TID 0000.0001) momForcing =  /* Momentum forcing on/off flag */
(PID.TID 0000.0001)                   T
(PID.TID 0000.0001)     ;
(PID.TID 0000.0001) momPressureForcing =  /* Momentum pressure term on/off flag */
(PID.TID 0000.0001)                   T
(PID.TID 0000.0001)     ;
(PID.TID 0000.0001) tempStepping =  /* Temperature equation on/off flag */
(PID.TID 0000.0001)                   T
(PID.TID 0000.0001)     ;
(PID.TID 0000.0001) nonHydrostatic =  /* Non-Hydrostatic on/off flag */
(PID.TID 0000.0001)                   F
(PID.TID 0000.0001)     ;
(PID.TID 0000.0001) //
(PID.TID 0000.0001) // Elliptic solver(s) paramters ( PARM02 in namelist )
(PID.TID 0000.0001) //
(PID.TID 0000.0001) cg2dMaxIters =   /* Upper limit on 2d con. grad iterations  */
(PID.TID 0000.0001)                     200
(PID.TID 0000.0001)     ;
(PID.TID 0000.0001) cg2dChkResFreq =   /* 2d con. grad convergence test frequency */
(PID.TID 0000.0001)                       1
(PID.TID 0000.0001)     ;
(PID.TID 0000.0001) cg2dTargetResidual =   /* 2d con. grad target residual  */
(PID.TID 0000.0001)                 1.000000000000000E-07
(PID.TID 0000.0001)     ;
(PID.TID 0000.0001) //
(PID.TID 0000.0001) // Time stepping paramters ( PARM03 in namelist )
(PID.TID 0000.0001) //
(PID.TID 0000.0001) nIter0 =   /* Base timestep number  */
(PID.TID 0000.0001)                    8640
(PID.TID 0000.0001)     ;
(PID.TID 0000.0001) nTimeSteps =   /* Number of timesteps */
(PID.TID 0000.0001)                      10
(PID.TID 0000.0001)     ;
(PID.TID 0000.0001) deltatTmom =   /* Momentum equation timestep ( s ) */
(PID.TID 0000.0001)                 6.000000000000000E+02
(PID.TID 0000.0001)     ;
(PID.TID 0000.0001) deltatTtracer =   /* Tracer equation timestep ( s ) */
(PID.TID 0000.0001)                 6.000000000000000E+02
(PID.TID 0000.0001)     ;
(PID.TID 0000.0001) deltatTClock  =   /* Model clock timestep ( s ) */
(PID.TID 0000.0001)                 6.000000000000000E+02
(PID.TID 0000.0001)     ;
(PID.TID 0000.0001) cAdjFreq =   /* Convective adjustment interval ( s ) */
(PID.TID 0000.0001)                 0.000000000000000E+00
(PID.TID 0000.0001)     ;
(PID.TID 0000.0001) abeps =   /* Adams-Bashforth stabilizing weight */
(PID.TID 0000.0001)                 1.000000000000000E-01
(PID.TID 0000.0001)     ;
(PID.TID 0000.0001) tauCD =   /* CD coupling time-scale ( s ) */
(PID.TID 0000.0001)                 6.000000000000000E+02
(PID.TID 0000.0001)     ;
(PID.TID 0000.0001) rCD =   /* Normalised CD coupling parameter */
(PID.TID 0000.0001)                 0.000000000000000E+00
(PID.TID 0000.0001)     ;
(PID.TID 0000.0001) startTime =   /* Run start time ( s ). */
(PID.TID 0000.0001)                 5.184000000000000E+06
(PID.TID 0000.0001)     ;
(PID.TID 0000.0001) endTime =   /* Integration ending time ( s ). */
(PID.TID 0000.0001)                 5.190000000000000E+06
(PID.TID 0000.0001)     ;
(PID.TID 0000.0001) pChkPtFreq =   /* Permanent restart/checkpoint file interval ( s ). */
(PID.TID 0000.0001)                 2.592000000000000E+06
(PID.TID 0000.0001)     ;
(PID.TID 0000.0001) chkPtFreq =   /* Rolling restart/checkpoint file interval ( s ). */
(PID.TID 0000.0001)                 0.000000000000000E+00
(PID.TID 0000.0001)     ;
(PID.TID 0000.0001) dumpFreq =   /* Model state write out interval ( s ). */
(PID.TID 0000.0001)                 2.592000000000000E+06
(PID.TID 0000.0001)     ;
(PID.TID 0000.0001) //
(PID.TID 0000.0001) // Gridding paramters ( PARM04 in namelist )
(PID.TID 0000.0001) //
(PID.TID 0000.0001) usingCartesianGrid =   /* Cartesian coordinates flag ( True / False ) */
(PID.TID 0000.0001)                   F
(PID.TID 0000.0001)     ;
(PID.TID 0000.0001) usingSphericalPolarGrid =   /* Spherical coordinates flag ( True / False ) */
(PID.TID 0000.0001)                   T
(PID.TID 0000.0001)     ;
(PID.TID 0000.0001) groundAtK1 =   /* Lower Boundary (ground) at the surface(k=1) ( T / F ) */
(PID.TID 0000.0001)                   T
(PID.TID 0000.0001)     ;
(PID.TID 0000.0001) Ro_SeaLevel =   /* r(1) ( units of r ) */
(PID.TID 0000.0001)                 1.000000000000000E+05
(PID.TID 0000.0001)     ;
(PID.TID 0000.0001) rkFac =   /* minus Vertical index orientation  */
(PID.TID 0000.0001)                 1.000000000000000E+00
(PID.TID 0000.0001)     ;
(PID.TID 0000.0001) horiVertRatio =   /* Ratio on units : Horiz - Vertical */
(PID.TID 0000.0001)                 9.810000000000001E+00
(PID.TID 0000.0001)     ;
(PID.TID 0000.0001) delZ =   /* W spacing ( m ) */
(PID.TID 0000.0001)     5 @  1.234567000000000E+05              /* K =  1:  5 */
(PID.TID 0000.0001)     ;
(PID.TID 0000.0001) delP =   /* W spacing ( Pa ) */
(PID.TID 0000.0001)     5 @  1.234567000000000E+05              /* K =  1:  5 */
(PID.TID 0000.0001)     ;
(PID.TID 0000.0001) delR =   /* W spacing ( units of r ) */
(PID.TID 0000.0001)                 1.000000000000000E+04,      /* K =  1 */
(PID.TID 0000.0001)                 2.500000000000000E+04,      /* K =  2 */
(PID.TID 0000.0001)                 3.000000000000000E+04,      /* K =  3 */
(PID.TID 0000.0001)                 2.000000000000000E+04,      /* K =  4 */
(PID.TID 0000.0001)                 1.500000000000000E+04       /* K =  5 */
(PID.TID 0000.0001)     ;
(PID.TID 0000.0001) delX =   /* U spacing ( m - cartesian, degrees - spherical ) */
(PID.TID 0000.0001)   128 @  2.812500000000000E+00              /* I =  1:128 */
(PID.TID 0000.0001)     ;
(PID.TID 0000.0001) delY =   /* V spacing ( m - cartesian, degrees - spherical ) */
(PID.TID 0000.0001)    23 @  2.812500000000000E+00              /* J =  1: 23 */
(PID.TID 0000.0001)     ;
(PID.TID 0000.0001) phiMin =    /* South edge (ignored - cartesian, degrees - spherical ) */
(PID.TID 0000.0001)                -3.234375000000000E+01
(PID.TID 0000.0001)     ;
(PID.TID 0000.0001) thetaMin =    /* West edge ( ignored - cartesian, degrees - spherical ) */
(PID.TID 0000.0001)                 0.000000000000000E+00
(PID.TID 0000.0001)     ;
(PID.TID 0000.0001) rSphere =    /* Radius ( ignored - cartesian, m - spherical ) */
(PID.TID 0000.0001)                 6.370000000000000E+06
(PID.TID 0000.0001)     ;
(PID.TID 0000.0001) xcoord =   /* P-point X coord ( m - cartesian, degrees - spherical ) */
(PID.TID 0000.0001)                 1.406250000000000E+00,      /* I =  1 */
(PID.TID 0000.0001)                 4.218750000000000E+00,      /* I =  2 */
(PID.TID 0000.0001)                 7.031250000000000E+00,      /* I =  3 */
(PID.TID 0000.0001)                 9.843750000000000E+00,      /* I =  4 */
(PID.TID 0000.0001)                 1.265625000000000E+01,      /* I =  5 */
(PID.TID 0000.0001)                 1.546875000000000E+01,      /* I =  6 */
(PID.TID 0000.0001)                 1.828125000000000E+01,      /* I =  7 */
(PID.TID 0000.0001)                 2.109375000000000E+01,      /* I =  8 */
(PID.TID 0000.0001)                 2.390625000000000E+01,      /* I =  9 */
(PID.TID 0000.0001)                 2.671875000000000E+01,      /* I = 10 */
(PID.TID 0000.0001)                 2.953125000000000E+01,      /* I = 11 */
(PID.TID 0000.0001)                 3.234375000000000E+01,      /* I = 12 */
(PID.TID 0000.0001)                 3.515625000000000E+01,      /* I = 13 */
(PID.TID 0000.0001)                 3.796875000000000E+01,      /* I = 14 */
(PID.TID 0000.0001)                 4.078125000000000E+01,      /* I = 15 */
(PID.TID 0000.0001)                 4.359375000000000E+01,      /* I = 16 */
(PID.TID 0000.0001)                 4.640625000000000E+01,      /* I = 17 */
(PID.TID 0000.0001)                 4.921875000000000E+01,      /* I = 18 */
(PID.TID 0000.0001)                 5.203125000000000E+01,      /* I = 19 */
(PID.TID 0000.0001)                 5.484375000000000E+01,      /* I = 20 */
(PID.TID 0000.0001)                 5.765625000000000E+01,      /* I = 21 */
(PID.TID 0000.0001)                 6.046875000000000E+01,      /* I = 22 */
(PID.TID 0000.0001)                 6.328125000000000E+01,      /* I = 23 */
(PID.TID 0000.0001)                 6.609375000000000E+01,      /* I = 24 */
(PID.TID 0000.0001)                 6.890625000000000E+01,      /* I = 25 */
(PID.TID 0000.0001)                 7.171875000000000E+01,      /* I = 26 */
(PID.TID 0000.0001)                 7.453125000000000E+01,      /* I = 27 */
(PID.TID 0000.0001)                 7.734375000000000E+01,      /* I = 28 */
(PID.TID 0000.0001)                 8.015625000000000E+01,      /* I = 29 */
(PID.TID 0000.0001)                 8.296875000000000E+01,      /* I = 30 */
(PID.TID 0000.0001)                 8.578125000000000E+01,      /* I = 31 */
(PID.TID 0000.0001)                 8.859375000000000E+01,      /* I = 32 */
(PID.TID 0000.0001)                 9.140625000000000E+01,      /* I = 33 */
(PID.TID 0000.0001)                 9.421875000000000E+01,      /* I = 34 */
(PID.TID 0000.0001)                 9.703125000000000E+01,      /* I = 35 */
(PID.TID 0000.0001)                 9.984375000000000E+01,      /* I = 36 */
(PID.TID 0000.0001)                 1.026562500000000E+02,      /* I = 37 */
(PID.TID 0000.0001)                 1.054687500000000E+02,      /* I = 38 */
(PID.TID 0000.0001)                 1.082812500000000E+02,      /* I = 39 */
(PID.TID 0000.0001)                 1.110937500000000E+02,      /* I = 40 */
(PID.TID 0000.0001)                 1.139062500000000E+02,      /* I = 41 */
(PID.TID 0000.0001)                 1.167187500000000E+02,      /* I = 42 */
(PID.TID 0000.0001)                 1.195312500000000E+02,      /* I = 43 */
(PID.TID 0000.0001)                 1.223437500000000E+02,      /* I = 44 */
(PID.TID 0000.0001)                 1.251562500000000E+02,      /* I = 45 */
(PID.TID 0000.0001)                 1.279687500000000E+02,      /* I = 46 */
(PID.TID 0000.0001)                 1.307812500000000E+02,      /* I = 47 */
(PID.TID 0000.0001)                 1.335937500000000E+02,      /* I = 48 */
(PID.TID 0000.0001)                 1.364062500000000E+02,      /* I = 49 */
(PID.TID 0000.0001)                 1.392187500000000E+02,      /* I = 50 */
(PID.TID 0000.0001)                 1.420312500000000E+02,      /* I = 51 */
(PID.TID 0000.0001)                 1.448437500000000E+02,      /* I = 52 */
(PID.TID 0000.0001)                 1.476562500000000E+02,      /* I = 53 */
(PID.TID 0000.0001)                 1.504687500000000E+02,      /* I = 54 */
(PID.TID 0000.0001)                 1.532812500000000E+02,      /* I = 55 */
(PID.TID 0000.0001)                 1.560937500000000E+02,      /* I = 56 */
(PID.TID 0000.0001)                 1.589062500000000E+02,      /* I = 57 */
(PID.TID 0000.0001)                 1.617187500000000E+02,      /* I = 58 */
(PID.TID 0000.0001)                 1.645312500000000E+02,      /* I = 59 */
(PID.TID 0000.0001)                 1.673437500000000E+02,      /* I = 60 */
(PID.TID 0000.0001)                 1.701562500000000E+02,      /* I = 61 */
(PID.TID 0000.0001)                 1.729687500000000E+02,      /* I = 62 */
(PID.TID 0000.0001)                 1.757812500000000E+02,      /* I = 63 */
(PID.TID 0000.0001)                 1.785937500000000E+02,      /* I = 64 */
(PID.TID 0000.0001)                 1.814062500000000E+02,      /* I = 65 */
(PID.TID 0000.0001)                 1.842187500000000E+02,      /* I = 66 */
(PID.TID 0000.0001)                 1.870312500000000E+02,      /* I = 67 */
(PID.TID 0000.0001)                 1.898437500000000E+02,      /* I = 68 */
(PID.TID 0000.0001)                 1.926562500000000E+02,      /* I = 69 */
(PID.TID 0000.0001)                 1.954687500000000E+02,      /* I = 70 */
(PID.TID 0000.0001)                 1.982812500000000E+02,      /* I = 71 */
(PID.TID 0000.0001)                 2.010937500000000E+02,      /* I = 72 */
(PID.TID 0000.0001)                 2.039062500000000E+02,      /* I = 73 */
(PID.TID 0000.0001)                 2.067187500000000E+02,      /* I = 74 */
(PID.TID 0000.0001)                 2.095312500000000E+02,      /* I = 75 */
(PID.TID 0000.0001)                 2.123437500000000E+02,      /* I = 76 */
(PID.TID 0000.0001)                 2.151562500000000E+02,      /* I = 77 */
(PID.TID 0000.0001)                 2.179687500000000E+02,      /* I = 78 */
(PID.TID 0000.0001)                 2.207812500000000E+02,      /* I = 79 */
(PID.TID 0000.0001)                 2.235937500000000E+02,      /* I = 80 */
(PID.TID 0000.0001)                 2.264062500000000E+02,      /* I = 81 */
(PID.TID 0000.0001)                 2.292187500000000E+02,      /* I = 82 */
(PID.TID 0000.0001)                 2.320312500000000E+02,      /* I = 83 */
(PID.TID 0000.0001)                 2.348437500000000E+02,      /* I = 84 */
(PID.TID 0000.0001)                 2.376562500000000E+02,      /* I = 85 */
(PID.TID 0000.0001)                 2.404687500000000E+02,      /* I = 86 */
(PID.TID 0000.0001)                 2.432812500000000E+02,      /* I = 87 */
(PID.TID 0000.0001)                 2.460937500000000E+02,      /* I = 88 */
(PID.TID 0000.0001)                 2.489062500000000E+02,      /* I = 89 */
(PID.TID 0000.0001)                 2.517187500000000E+02,      /* I = 90 */
(PID.TID 0000.0001)                 2.545312500000000E+02,      /* I = 91 */
(PID.TID 0000.0001)                 2.573437500000000E+02,      /* I = 92 */
(PID.TID 0000.0001)                 2.601562500000000E+02,      /* I = 93 */
(PID.TID 0000.0001)                 2.629687500000000E+02,      /* I = 94 */
(PID.TID 0000.0001)                 2.657812500000000E+02,      /* I = 95 */
(PID.TID 0000.0001)                 2.685937500000000E+02,      /* I = 96 */
(PID.TID 0000.0001)                 2.714062500000000E+02,      /* I = 97 */
(PID.TID 0000.0001)                 2.742187500000000E+02,      /* I = 98 */
(PID.TID 0000.0001)                 2.770312500000000E+02,      /* I = 99 */
(PID.TID 0000.0001)                 2.798437500000000E+02,      /* I =100 */
(PID.TID 0000.0001)                 2.826562500000000E+02,      /* I =101 */
(PID.TID 0000.0001)                 2.854687500000000E+02,      /* I =102 */
(PID.TID 0000.0001)                 2.882812500000000E+02,      /* I =103 */
(PID.TID 0000.0001)                 2.910937500000000E+02,      /* I =104 */
(PID.TID 0000.0001)                 2.939062500000000E+02,      /* I =105 */
(PID.TID 0000.0001)                 2.967187500000000E+02,      /* I =106 */
(PID.TID 0000.0001)                 2.995312500000000E+02,      /* I =107 */
(PID.TID 0000.0001)                 3.023437500000000E+02,      /* I =108 */
(PID.TID 0000.0001)                 3.051562500000000E+02,      /* I =109 */
(PID.TID 0000.0001)                 3.079687500000000E+02,      /* I =110 */
(PID.TID 0000.0001)                 3.107812500000000E+02,      /* I =111 */
(PID.TID 0000.0001)                 3.135937500000000E+02,      /* I =112 */
(PID.TID 0000.0001)                 3.164062500000000E+02,      /* I =113 */
(PID.TID 0000.0001)                 3.192187500000000E+02,      /* I =114 */
(PID.TID 0000.0001)                 3.220312500000000E+02,      /* I =115 */
(PID.TID 0000.0001)                 3.248437500000000E+02,      /* I =116 */
(PID.TID 0000.0001)                 3.276562500000000E+02,      /* I =117 */
(PID.TID 0000.0001)                 3.304687500000000E+02,      /* I =118 */
(PID.TID 0000.0001)                 3.332812500000000E+02,      /* I =119 */
(PID.TID 0000.0001)                 3.360937500000000E+02,      /* I =120 */
(PID.TID 0000.0001)                 3.389062500000000E+02,      /* I =121 */
(PID.TID 0000.0001)                 3.417187500000000E+02,      /* I =122 */
(PID.TID 0000.0001)                 3.445312500000000E+02,      /* I =123 */
(PID.TID 0000.0001)                 3.473437500000000E+02,      /* I =124 */
(PID.TID 0000.0001)                 3.501562500000000E+02,      /* I =125 */
(PID.TID 0000.0001)                 3.529687500000000E+02,      /* I =126 */
(PID.TID 0000.0001)                 3.557812500000000E+02,      /* I =127 */
(PID.TID 0000.0001)                 3.585937500000000E+02       /* I =128 */
(PID.TID 0000.0001)     ;
(PID.TID 0000.0001) ycoord =   /* P-point Y coord ( m - cartesian, degrees - spherical ) */
(PID.TID 0000.0001)                -3.093750000000000E+01,      /* J =  1 */
(PID.TID 0000.0001)                -2.812500000000000E+01,      /* J =  2 */
(PID.TID 0000.0001)                -2.531250000000000E+01,      /* J =  3 */
(PID.TID 0000.0001)                -2.250000000000000E+01,      /* J =  4 */
(PID.TID 0000.0001)                -1.968750000000000E+01,      /* J =  5 */
(PID.TID 0000.0001)                -1.687500000000000E+01,      /* J =  6 */
(PID.TID 0000.0001)                -1.406250000000000E+01,      /* J =  7 */
(PID.TID 0000.0001)                -1.125000000000000E+01,      /* J =  8 */
(PID.TID 0000.0001)                -8.437500000000000E+00,      /* J =  9 */
(PID.TID 0000.0001)                -5.625000000000000E+00,      /* J = 10 */
(PID.TID 0000.0001)                -2.812500000000000E+00,      /* J = 11 */
(PID.TID 0000.0001)                 0.000000000000000E+00,      /* J = 12 */
(PID.TID 0000.0001)                 2.812500000000000E+00,      /* J = 13 */
(PID.TID 0000.0001)                 5.625000000000000E+00,      /* J = 14 */
(PID.TID 0000.0001)                 8.437500000000000E+00,      /* J = 15 */
(PID.TID 0000.0001)                 1.125000000000000E+01,      /* J = 16 */
(PID.TID 0000.0001)                 1.406250000000000E+01,      /* J = 17 */
(PID.TID 0000.0001)                 1.687500000000000E+01,      /* J = 18 */
(PID.TID 0000.0001)                 1.968750000000000E+01,      /* J = 19 */
(PID.TID 0000.0001)                 2.250000000000000E+01,      /* J = 20 */
(PID.TID 0000.0001)                 2.531250000000000E+01,      /* J = 21 */
(PID.TID 0000.0001)                 2.812500000000000E+01,      /* J = 22 */
(PID.TID 0000.0001)                 3.093750000000000E+01       /* J = 23 */
(PID.TID 0000.0001)     ;
(PID.TID 0000.0001) rcoord =   /* P-point R coordinate (  units of r ) */
(PID.TID 0000.0001)                 9.500000000000000E+04,      /* K =  1 */
(PID.TID 0000.0001)                 7.750000000000000E+04,      /* K =  2 */
(PID.TID 0000.0001)                 5.000000000000000E+04,      /* K =  3 */
(PID.TID 0000.0001)                 2.500000000000000E+04,      /* K =  4 */
(PID.TID 0000.0001)                 7.500000000000000E+03       /* K =  5 */
(PID.TID 0000.0001)     ;
(PID.TID 0000.0001) dxF =  /* dxF(:,1,:,1) ( m - cartesian, degrees - spherical ) */
(PID.TID 0000.0001)   128 @  2.682002803544621E+05              /* I =  1:128 */
(PID.TID 0000.0001)     ;
(PID.TID 0000.0001) dxF =  /* dxF(1,:,1,:) ( m - cartesian, degrees - spherical ) */
(PID.TID 0000.0001)                 2.682002803544621E+05,      /* J =  1 */
(PID.TID 0000.0001)                 2.757650002472408E+05,      /* J =  2 */
(PID.TID 0000.0001)                 2.826653781002625E+05,      /* J =  3 */
(PID.TID 0000.0001)                 2.888847902988778E+05,      /* J =  4 */
(PID.TID 0000.0001)                 2.944082537343438E+05,      /* J =  5 */
(PID.TID 0000.0001)                 2.992224618994463E+05,      /* J =  6 */
(PID.TID 0000.0001)                 3.033158169450409E+05,      /* J =  7 */
(PID.TID 0000.0001)                 3.066784576202870E+05,      /* J =  8 */
(PID.TID 0000.0001)                 3.093022830292655E+05,      /* J =  9 */
(PID.TID 0000.0001)                 3.111809721467461E+05,      /* J = 10 */
(PID.TID 0000.0001)                 3.123099990460912E+05,      /* J = 11 */
(PID.TID 0000.0001)                 3.126866438026091E+05,      /* J = 12 */
(PID.TID 0000.0001)                 3.123099990460912E+05,      /* J = 13 */
(PID.TID 0000.0001)                 3.111809721467461E+05,      /* J = 14 */
(PID.TID 0000.0001)                 3.093022830292655E+05,      /* J = 15 */
(PID.TID 0000.0001)                 3.066784576202870E+05,      /* J = 16 */
(PID.TID 0000.0001)                 3.033158169450409E+05,      /* J = 17 */
(PID.TID 0000.0001)                 2.992224618994463E+05,      /* J = 18 */
(PID.TID 0000.0001)                 2.944082537343438E+05,      /* J = 19 */
(PID.TID 0000.0001)                 2.888847902988778E+05,      /* J = 20 */
(PID.TID 0000.0001)                 2.826653781002625E+05,      /* J = 21 */
(PID.TID 0000.0001)                 2.757650002472408E+05,      /* J = 22 */
(PID.TID 0000.0001)                 2.682002803544621E+05       /* J = 23 */
(PID.TID 0000.0001)     ;
(PID.TID 0000.0001) dyF =  /* dyF(:,1,:,1) ( m - cartesian, degrees - spherical ) */
(PID.TID 0000.0001)   128 @  3.126866438026091E+05              /* I =  1:128 */
(PID.TID 0000.0001)     ;
(PID.TID 0000.0001) dyF =  /* dyF(1,:,1,:) ( m - cartesian, degrees - spherical ) */
(PID.TID 0000.0001)    23 @  3.126866438026091E+05              /* J =  1: 23 */
(PID.TID 0000.0001)     ;
(PID.TID 0000.0001) dxG =  /* dxG(:,1,:,1) ( m - cartesian, degrees - spherical ) */
(PID.TID 0000.0001)   128 @  2.641744258225996E+05              /* I =  1:128 */
(PID.TID 0000.0001)     ;
(PID.TID 0000.0001) dxG =  /* dxG(1,:,1,:) ( m - cartesian, degrees - spherical ) */
(PID.TID 0000.0001)                 2.641744258225996E+05,      /* J =  1 */
(PID.TID 0000.0001)                 2.720645810660936E+05,      /* J =  2 */
(PID.TID 0000.0001)                 2.792993089037566E+05,      /* J =  3 */
(PID.TID 0000.0001)                 2.858611802425402E+05,      /* J =  4 */
(PID.TID 0000.0001)                 2.917343869596373E+05,      /* J =  5 */
(PID.TID 0000.0001)                 2.969047799856344E+05,      /* J =  6 */
(PID.TID 0000.0001)                 3.013599033908587E+05,      /* J =  7 */
(PID.TID 0000.0001)                 3.050890243928044E+05,      /* J =  8 */
(PID.TID 0000.0001)                 3.080831592123453E+05,      /* J =  9 */
(PID.TID 0000.0001)                 3.103350947164461E+05,      /* J = 10 */
(PID.TID 0000.0001)                 3.118394057952310E+05,      /* J = 11 */
(PID.TID 0000.0001)     2 @  3.125924684315491E+05,             /* J = 12: 13 */
(PID.TID 0000.0001)                 3.118394057952310E+05,      /* J = 14 */
(PID.TID 0000.0001)                 3.103350947164461E+05,      /* J = 15 */
(PID.TID 0000.0001)                 3.080831592123453E+05,      /* J = 16 */
(PID.TID 0000.0001)                 3.050890243928044E+05,      /* J = 17 */
(PID.TID 0000.0001)                 3.013599033908587E+05,      /* J = 18 */
(PID.TID 0000.0001)                 2.969047799856344E+05,      /* J = 19 */
(PID.TID 0000.0001)                 2.917343869596373E+05,      /* J = 20 */
(PID.TID 0000.0001)                 2.858611802425402E+05,      /* J = 21 */
(PID.TID 0000.0001)                 2.792993089037566E+05,      /* J = 22 */
(PID.TID 0000.0001)                 2.720645810660936E+05       /* J = 23 */
(PID.TID 0000.0001)     ;
(PID.TID 0000.0001) dyG =  /* dyG(:,1,:,1) ( m - cartesian, degrees - spherical ) */
(PID.TID 0000.0001)   128 @  3.126866438026091E+05              /* I =  1:128 */
(PID.TID 0000.0001)     ;
(PID.TID 0000.0001) dyG =  /* dyG(1,:,1,:) ( m - cartesian, degrees - spherical ) */
(PID.TID 0000.0001)    23 @  3.126866438026091E+05              /* J =  1: 23 */
(PID.TID 0000.0001)     ;
(PID.TID 0000.0001) dxC =  /* dxC(:,1,:,1) ( m - cartesian, degrees - spherical ) */
(PID.TID 0000.0001)   128 @  2.682002803544621E+05              /* I =  1:128 */
(PID.TID 0000.0001)     ;
(PID.TID 0000.0001) dxC =  /* dxC(1,:,1,:) ( m - cartesian, degrees - spherical ) */
(PID.TID 0000.0001)                 2.682002803544621E+05,      /* J =  1 */
(PID.TID 0000.0001)                 2.757650002472408E+05,      /* J =  2 */
(PID.TID 0000.0001)                 2.826653781002625E+05,      /* J =  3 */
(PID.TID 0000.0001)                 2.888847902988778E+05,      /* J =  4 */
(PID.TID 0000.0001)                 2.944082537343438E+05,      /* J =  5 */
(PID.TID 0000.0001)                 2.992224618994463E+05,      /* J =  6 */
(PID.TID 0000.0001)                 3.033158169450409E+05,      /* J =  7 */
(PID.TID 0000.0001)                 3.066784576202870E+05,      /* J =  8 */
(PID.TID 0000.0001)                 3.093022830292655E+05,      /* J =  9 */
(PID.TID 0000.0001)                 3.111809721467461E+05,      /* J = 10 */
(PID.TID 0000.0001)                 3.123099990460912E+05,      /* J = 11 */
(PID.TID 0000.0001)                 3.126866438026091E+05,      /* J = 12 */
(PID.TID 0000.0001)                 3.123099990460912E+05,      /* J = 13 */
(PID.TID 0000.0001)                 3.111809721467461E+05,      /* J = 14 */
(PID.TID 0000.0001)                 3.093022830292655E+05,      /* J = 15 */
(PID.TID 0000.0001)                 3.066784576202870E+05,      /* J = 16 */
(PID.TID 0000.0001)                 3.033158169450409E+05,      /* J = 17 */
(PID.TID 0000.0001)                 2.992224618994463E+05,      /* J = 18 */
(PID.TID 0000.0001)                 2.944082537343438E+05,      /* J = 19 */
(PID.TID 0000.0001)                 2.888847902988778E+05,      /* J = 20 */
(PID.TID 0000.0001)                 2.826653781002625E+05,      /* J = 21 */
(PID.TID 0000.0001)                 2.757650002472408E+05,      /* J = 22 */
(PID.TID 0000.0001)                 2.682002803544621E+05       /* J = 23 */
(PID.TID 0000.0001)     ;
(PID.TID 0000.0001) dyC =  /* dyC(:,1,:,1) ( m - cartesian, degrees - spherical ) */
(PID.TID 0000.0001)   128 @  3.126866438026091E+05              /* I =  1:128 */
(PID.TID 0000.0001)     ;
(PID.TID 0000.0001) dyC =  /* dyC(1,:,1,:) ( m - cartesian, degrees - spherical ) */
(PID.TID 0000.0001)    23 @  3.126866438026091E+05              /* J =  1: 23 */
(PID.TID 0000.0001)     ;
(PID.TID 0000.0001) dxV =  /* dxV(:,1,:,1) ( m - cartesian, degrees - spherical ) */
(PID.TID 0000.0001)   128 @  2.641744258225996E+05              /* I =  1:128 */
(PID.TID 0000.0001)     ;
(PID.TID 0000.0001) dxV =  /* dxV(1,:,1,:) ( m - cartesian, degrees - spherical ) */
(PID.TID 0000.0001)                 2.641744258225996E+05,      /* J =  1 */
(PID.TID 0000.0001)                 2.720645810660936E+05,      /* J =  2 */
(PID.TID 0000.0001)                 2.792993089037566E+05,      /* J =  3 */
(PID.TID 0000.0001)                 2.858611802425402E+05,      /* J =  4 */
(PID.TID 0000.0001)                 2.917343869596373E+05,      /* J =  5 */
(PID.TID 0000.0001)                 2.969047799856344E+05,      /* J =  6 */
(PID.TID 0000.0001)                 3.013599033908587E+05,      /* J =  7 */
(PID.TID 0000.0001)                 3.050890243928044E+05,      /* J =  8 */
(PID.TID 0000.0001)                 3.080831592123453E+05,      /* J =  9 */
(PID.TID 0000.0001)                 3.103350947164461E+05,      /* J = 10 */
(PID.TID 0000.0001)                 3.118394057952310E+05,      /* J = 11 */
(PID.TID 0000.0001)     2 @  3.125924684315491E+05,             /* J = 12: 13 */
(PID.TID 0000.0001)                 3.118394057952310E+05,      /* J = 14 */
(PID.TID 0000.0001)                 3.103350947164461E+05,      /* J = 15 */
(PID.TID 0000.0001)                 3.080831592123453E+05,      /* J = 16 */
(PID.TID 0000.0001)                 3.050890243928044E+05,      /* J = 17 */
(PID.TID 0000.0001)                 3.013599033908587E+05,      /* J = 18 */
(PID.TID 0000.0001)                 2.969047799856344E+05,      /* J = 19 */
(PID.TID 0000.0001)                 2.917343869596373E+05,      /* J = 20 */
(PID.TID 0000.0001)                 2.858611802425402E+05,      /* J = 21 */
(PID.TID 0000.0001)                 2.792993089037566E+05,      /* J = 22 */
(PID.TID 0000.0001)                 2.720645810660936E+05       /* J = 23 */
(PID.TID 0000.0001)     ;
(PID.TID 0000.0001) dyU =  /* dyU(:,1,:,1) ( m - cartesian, degrees - spherical ) */
(PID.TID 0000.0001)   128 @  3.126866438026091E+05              /* I =  1:128 */
(PID.TID 0000.0001)     ;
(PID.TID 0000.0001) dyU =  /* dyU(1,:,1,:) ( m - cartesian, degrees - spherical ) */
(PID.TID 0000.0001)    23 @  3.126866438026091E+05              /* J =  1: 23 */
(PID.TID 0000.0001)     ;
(PID.TID 0000.0001) rA =  /* rA(:,1,:,1) ( m - cartesian, degrees - spherical ) */
(PID.TID 0000.0001)   128 @  8.385422607492098E+10              /* I =  1:128 */
(PID.TID 0000.0001)     ;
(PID.TID 0000.0001) rA =  /* rA(1,:,1,:) ( m - cartesian, degrees - spherical ) */
(PID.TID 0000.0001)                 8.385422607492098E+10,      /* J =  1 */
(PID.TID 0000.0001)                 8.621937547463149E+10,      /* J =  2 */
(PID.TID 0000.0001)                 8.837681484689812E+10,      /* J =  3 */
(PID.TID 0000.0001)                 9.032134673130377E+10,      /* J =  4 */
(PID.TID 0000.0001)                 9.204828658021816E+10,      /* J =  5 */
(PID.TID 0000.0001)                 9.355347404428317E+10,      /* J =  6 */
(PID.TID 0000.0001)                 9.483328299505898E+10,      /* J =  7 */
(PID.TID 0000.0001)                 9.588463026068500E+10,      /* J =  8 */
(PID.TID 0000.0001)                 9.670498305351135E+10,      /* J =  9 */
(PID.TID 0000.0001)                 9.729236507180571E+10,      /* J = 10 */
(PID.TID 0000.0001)                 9.764536126083740E+10,      /* J = 11 */
(PID.TID 0000.0001)                 9.776312122186816E+10,      /* J = 12 */
(PID.TID 0000.0001)                 9.764536126083740E+10,      /* J = 13 */
(PID.TID 0000.0001)                 9.729236507180571E+10,      /* J = 14 */
(PID.TID 0000.0001)                 9.670498305351135E+10,      /* J = 15 */
(PID.TID 0000.0001)                 9.588463026068500E+10,      /* J = 16 */
(PID.TID 0000.0001)                 9.483328299505898E+10,      /* J = 17 */
(PID.TID 0000.0001)                 9.355347404428317E+10,      /* J = 18 */
(PID.TID 0000.0001)                 9.204828658021816E+10,      /* J = 19 */
(PID.TID 0000.0001)                 9.032134673130377E+10,      /* J = 20 */
(PID.TID 0000.0001)                 8.837681484689812E+10,      /* J = 21 */
(PID.TID 0000.0001)                 8.621937547463149E+10,      /* J = 22 */
(PID.TID 0000.0001)                 8.385422607492098E+10       /* J = 23 */
(PID.TID 0000.0001)     ;
(PID.TID 0000.0001) rAw =  /* rAw(:,1,:,1) ( m - cartesian, degrees - spherical ) */
(PID.TID 0000.0001)   128 @  8.385422607492098E+10              /* I =  1:128 */
(PID.TID 0000.0001)     ;
(PID.TID 0000.0001) rAw =  /* rAw(1,:,1,:) ( m - cartesian, degrees - spherical ) */
(PID.TID 0000.0001)                 8.385422607492098E+10,      /* J =  1 */
(PID.TID 0000.0001)                 8.621937547463149E+10,      /* J =  2 */
(PID.TID 0000.0001)                 8.837681484689812E+10,      /* J =  3 */
(PID.TID 0000.0001)                 9.032134673130377E+10,      /* J =  4 */
(PID.TID 0000.0001)                 9.204828658021816E+10,      /* J =  5 */
(PID.TID 0000.0001)                 9.355347404428317E+10,      /* J =  6 */
(PID.TID 0000.0001)                 9.483328299505898E+10,      /* J =  7 */
(PID.TID 0000.0001)                 9.588463026068500E+10,      /* J =  8 */
(PID.TID 0000.0001)                 9.670498305351135E+10,      /* J =  9 */
(PID.TID 0000.0001)                 9.729236507180571E+10,      /* J = 10 */
(PID.TID 0000.0001)                 9.764536126083740E+10,      /* J = 11 */
(PID.TID 0000.0001)                 9.776312122186816E+10,      /* J = 12 */
(PID.TID 0000.0001)                 9.764536126083740E+10,      /* J = 13 */
(PID.TID 0000.0001)                 9.729236507180571E+10,      /* J = 14 */
(PID.TID 0000.0001)                 9.670498305351135E+10,      /* J = 15 */
(PID.TID 0000.0001)                 9.588463026068500E+10,      /* J = 16 */
(PID.TID 0000.0001)                 9.483328299505898E+10,      /* J = 17 */
(PID.TID 0000.0001)                 9.355347404428317E+10,      /* J = 18 */
(PID.TID 0000.0001)                 9.204828658021816E+10,      /* J = 19 */
(PID.TID 0000.0001)                 9.032134673130377E+10,      /* J = 20 */
(PID.TID 0000.0001)                 8.837681484689812E+10,      /* J = 21 */
(PID.TID 0000.0001)                 8.621937547463149E+10,      /* J = 22 */
(PID.TID 0000.0001)                 8.385422607492098E+10       /* J = 23 */
(PID.TID 0000.0001)     ;
(PID.TID 0000.0001) rAs =  /* rAs(:,1,:,1) ( m - cartesian, degrees - spherical ) */
(PID.TID 0000.0001)   128 @  8.259552151423444E+10              /* I =  1:128 */
(PID.TID 0000.0001)     ;
(PID.TID 0000.0001) rAs =  /* rAs(1,:,1,:) ( m - cartesian, degrees - spherical ) */
(PID.TID 0000.0001)                 8.259552151423444E+10,      /* J =  1 */
(PID.TID 0000.0001)                 8.506241998533159E+10,      /* J =  2 */
(PID.TID 0000.0001)                 8.732439563609566E+10,      /* J =  3 */
(PID.TID 0000.0001)                 8.937599916905872E+10,      /* J =  4 */
(PID.TID 0000.0001)                 9.121228809161066E+10,      /* J =  5 */
(PID.TID 0000.0001)                 9.282883862289705E+10,      /* J =  6 */
(PID.TID 0000.0001)                 9.422175635109474E+10,      /* J =  7 */
(PID.TID 0000.0001)                 9.538768561539165E+10,      /* J =  8 */
(PID.TID 0000.0001)                 9.632381759006651E+10,      /* J =  9 */
(PID.TID 0000.0001)                 9.702789705119698E+10,      /* J = 10 */
(PID.TID 0000.0001)                 9.749822780969106E+10,      /* J = 11 */
(PID.TID 0000.0001)     2 @  9.773367679755542E+10,             /* J = 12: 13 */
(PID.TID 0000.0001)                 9.749822780969106E+10,      /* J = 14 */
(PID.TID 0000.0001)                 9.702789705119698E+10,      /* J = 15 */
(PID.TID 0000.0001)                 9.632381759006651E+10,      /* J = 16 */
(PID.TID 0000.0001)                 9.538768561539165E+10,      /* J = 17 */
(PID.TID 0000.0001)                 9.422175635109474E+10,      /* J = 18 */
(PID.TID 0000.0001)                 9.282883862289705E+10,      /* J = 19 */
(PID.TID 0000.0001)                 9.121228809161066E+10,      /* J = 20 */
(PID.TID 0000.0001)                 8.937599916905872E+10,      /* J = 21 */
(PID.TID 0000.0001)                 8.732439563609566E+10,      /* J = 22 */
(PID.TID 0000.0001)                 8.506241998533159E+10       /* J = 23 */
(PID.TID 0000.0001)     ;
(PID.TID 0000.0001) 
(PID.TID 0000.0001)  MDSREADFIELD: opening global file: pickup.0000008640
(PID.TID 0000.0001)  MDSREADFIELD: opening global file: pickup.0000008640
(PID.TID 0000.0001)  MDSREADFIELD: opening global file: pickup.0000008640
(PID.TID 0000.0001)  MDSREADFIELD: opening global file: pickup.0000008640
(PID.TID 0000.0001)  MDSREADFIELD: opening global file: pickup.0000008640
(PID.TID 0000.0001)  MDSREADFIELD: opening global file: pickup.0000008640
(PID.TID 0000.0001)  MDSREADFIELD: opening global file: pickup.0000008640
(PID.TID 0000.0001)  MDSREADFIELD: opening global file: pickup.0000008640
(PID.TID 0000.0001)  MDSREADFIELD: opening global file: pickup.0000008640
(PID.TID 0000.0001)  MDSREADFIELD: opening global file: pickup.0000008640
(PID.TID 0000.0001)  MDSREADFIELD: opening global file: pickup.0000008640
(PID.TID 0000.0001)  MDSREADFIELD: opening global file: pickup.0000008640
(PID.TID 0000.0001)  MDSREADFIELD: opening global file: pickup.0000008640
(PID.TID 0000.0001) // =======================================================
(PID.TID 0000.0001) // Model current state
(PID.TID 0000.0001) // =======================================================
(PID.TID 0000.0001) 
(PID.TID 0000.0001) // =======================================================
(PID.TID 0000.0001) // Begin MONITOR dynamic field statistics
(PID.TID 0000.0001) // =======================================================
(PID.TID 0000.0001) %MON time_tsnumber                =                  8640
(PID.TID 0000.0001) %MON time_secondsf                =   5.1840000000000E+06
(PID.TID 0000.0001) %MON time_secondsi                =               5184000
(PID.TID 0000.0001) %MON dynstat_eta_max              =   9.9081369162055E+02
(PID.TID 0000.0001) %MON dynstat_eta_min              =  -1.4582900287715E+03
(PID.TID 0000.0001) %MON dynstat_eta_mean             =   3.3242023768642E+00
(PID.TID 0000.0001) %MON dynstat_eta_sd               =   4.6325198532155E+02
(PID.TID 0000.0001) %MON dynstat_uvel_max             =   4.4357708337580E+01
(PID.TID 0000.0001) %MON dynstat_uvel_min             =  -3.1059614843420E+01
(PID.TID 0000.0001) %MON dynstat_uvel_mean            =   3.5053606589025E+00
(PID.TID 0000.0001) %MON dynstat_uvel_sd              =   1.0593958877525E+01
(PID.TID 0000.0001) %MON dynstat_vvel_max             =   2.1911876971900E+01
(PID.TID 0000.0001) %MON dynstat_vvel_min             =  -4.0207466640580E+01
(PID.TID 0000.0001) %MON dynstat_vvel_mean            =  -1.2087980194626E-02
(PID.TID 0000.0001) %MON dynstat_vvel_sd              =   4.3368853676172E+00
(PID.TID 0000.0001) %MON dynstat_wvel_max             =   0.0000000000000E+00
(PID.TID 0000.0001) %MON dynstat_wvel_min             =   0.0000000000000E+00
(PID.TID 0000.0001) %MON dynstat_wvel_mean            =   0.0000000000000E+00
(PID.TID 0000.0001) %MON dynstat_wvel_sd              =   0.0000000000000E+00
(PID.TID 0000.0001) %MON dynstat_theta_max            =   4.5722276153770E+02
(PID.TID 0000.0001) %MON dynstat_theta_min            =   3.0716268125663E+02
(PID.TID 0000.0001) %MON dynstat_theta_mean           =   3.6719988766562E+02
(PID.TID 0000.0001) %MON dynstat_theta_sd             =   4.2420597089826E+01
(PID.TID 0000.0001) %MON dynstat_salt_max             =   5.8435140722437E+01
(PID.TID 0000.0001) %MON dynstat_salt_min             =  -5.4714594385799E+00
(PID.TID 0000.0001) %MON dynstat_salt_mean            =   1.2054650906600E+01
(PID.TID 0000.0001) %MON dynstat_salt_sd              =   1.0963645245188E+01
(PID.TID 0000.0001) %MON advcfl_uvel_max              =   8.7745588972601E-02
(PID.TID 0000.0001) %MON advcfl_vvel_max              =   7.7152255980518E-02
(PID.TID 0000.0001) %MON advcfl_wvel_max              =   0.0000000000000E+00
(PID.TID 0000.0001) %MON advcfl_W_hf_max              =   0.0000000000000E+00
(PID.TID 0000.0001) %MON ke_max                       =   1.0837484075284E+03
(PID.TID 0000.0001) %MON ke_mean                      =   7.1255234194367E+01
(PID.TID 0000.0001) // =======================================================
(PID.TID 0000.0001) // End MONITOR dynamic field statistics
(PID.TID 0000.0001) // =======================================================
 cg2d: Sum(rhs),rhsMax =  -9.50353751250077E-09  3.10943487460806E+03
(PID.TID 0000.0001)                    cg2d_init_res =    1.64347522606569E+02
(PID.TID 0000.0001)                       cg2d_iters =    15
(PID.TID 0000.0001)                         cg2d_res =    2.39747109253828E-12
(PID.TID 0000.0001) // =======================================================
(PID.TID 0000.0001) // Begin MONITOR dynamic field statistics
(PID.TID 0000.0001) // =======================================================
(PID.TID 0000.0001) %MON time_tsnumber                =                  8641
(PID.TID 0000.0001) %MON time_secondsf                =   5.1846000000000E+06
(PID.TID 0000.0001) %MON time_secondsi                =               5184600
(PID.TID 0000.0001) %MON dynstat_eta_max              =   9.9144728995319E+02
(PID.TID 0000.0001) %MON dynstat_eta_min              =  -1.4601805000279E+03
(PID.TID 0000.0001) %MON dynstat_eta_mean             =   3.3224746284481E+00
(PID.TID 0000.0001) %MON dynstat_eta_sd               =   4.6337837417584E+02
(PID.TID 0000.0001) %MON dynstat_uvel_max             =   4.4248883699897E+01
(PID.TID 0000.0001) %MON dynstat_uvel_min             =  -3.1329097990874E+01
(PID.TID 0000.0001) %MON dynstat_uvel_mean            =   3.5057678099226E+00
(PID.TID 0000.0001) %MON dynstat_uvel_sd              =   1.0594222233027E+01
(PID.TID 0000.0001) %MON dynstat_vvel_max             =   2.1954797664523E+01
(PID.TID 0000.0001) %MON dynstat_vvel_min             =  -4.0067096971799E+01
(PID.TID 0000.0001) %MON dynstat_vvel_mean            =  -1.2188346775424E-02
(PID.TID 0000.0001) %MON dynstat_vvel_sd              =   4.3380511647362E+00
(PID.TID 0000.0001) %MON dynstat_wvel_max             =   7.6947054867924E-01
(PID.TID 0000.0001) %MON dynstat_wvel_min             =  -2.0845225302944E+00
(PID.TID 0000.0001) %MON dynstat_wvel_mean            =  -2.0505883291705E-05
(PID.TID 0000.0001) %MON dynstat_wvel_sd              =   8.9749327019252E-02
(PID.TID 0000.0001) %MON dynstat_theta_max            =   4.5723736650747E+02
(PID.TID 0000.0001) %MON dynstat_theta_min            =   3.0711412013052E+02
(PID.TID 0000.0001) %MON dynstat_theta_mean           =   3.6720056711677E+02
(PID.TID 0000.0001) %MON dynstat_theta_sd             =   4.2420287907636E+01
(PID.TID 0000.0001) %MON dynstat_salt_max             =   5.8432797651659E+01
(PID.TID 0000.0001) %MON dynstat_salt_min             =  -5.4721755613461E+00
(PID.TID 0000.0001) %MON dynstat_salt_mean            =   1.2054378736572E+01
(PID.TID 0000.0001) %MON dynstat_salt_sd              =   1.0963610366866E+01
(PID.TID 0000.0001) %MON advcfl_uvel_max              =   8.7530319016462E-02
(PID.TID 0000.0001) %MON advcfl_vvel_max              =   7.6882907087823E-02
(PID.TID 0000.0001) %MON advcfl_wvel_max              =   6.1589983693288E-02
(PID.TID 0000.0001) %MON advcfl_W_hf_max              =   6.1589983693288E-02
(PID.TID 0000.0001) %MON ke_max                       =   1.0816689202533E+03
(PID.TID 0000.0001) %MON ke_mean                      =   7.1264289421245E+01
(PID.TID 0000.0001) // =======================================================
(PID.TID 0000.0001) // End MONITOR dynamic field statistics
(PID.TID 0000.0001) // =======================================================
 cg2d: Sum(rhs),rhsMax =  -8.97648533282336E-09  3.11441451698898E+03
(PID.TID 0000.0001)                    cg2d_init_res =    1.63610498645270E+02
(PID.TID 0000.0001)                       cg2d_iters =    15
(PID.TID 0000.0001)                         cg2d_res =    2.37912980244509E-12
(PID.TID 0000.0001) // =======================================================
(PID.TID 0000.0001) // Begin MONITOR dynamic field statistics
(PID.TID 0000.0001) // =======================================================
(PID.TID 0000.0001) %MON time_tsnumber                =                  8642
(PID.TID 0000.0001) %MON time_secondsf                =   5.1852000000000E+06
(PID.TID 0000.0001) %MON time_secondsi                =               5185200
(PID.TID 0000.0001) %MON dynstat_eta_max              =   9.9209741487689E+02
(PID.TID 0000.0001) %MON dynstat_eta_min              =  -1.4619727355852E+03
(PID.TID 0000.0001) %MON dynstat_eta_mean             =   3.3206699972044E+00
(PID.TID 0000.0001) %MON dynstat_eta_sd               =   4.6350454503918E+02
(PID.TID 0000.0001) %MON dynstat_uvel_max             =   4.4158198634221E+01
(PID.TID 0000.0001) %MON dynstat_uvel_min             =  -3.1586522907493E+01
(PID.TID 0000.0001) %MON dynstat_uvel_mean            =   3.5061723812779E+00
(PID.TID 0000.0001) %MON dynstat_uvel_sd              =   1.0594485774768E+01
(PID.TID 0000.0001) %MON dynstat_vvel_max             =   2.1984314400356E+01
(PID.TID 0000.0001) %MON dynstat_vvel_min             =  -3.9924085646725E+01
(PID.TID 0000.0001) %MON dynstat_vvel_mean            =  -1.2284701534666E-02
(PID.TID 0000.0001) %MON dynstat_vvel_sd              =   4.3391996926804E+00
(PID.TID 0000.0001) %MON dynstat_wvel_max             =   7.6984942784005E-01
(PID.TID 0000.0001) %MON dynstat_wvel_min             =  -2.0812998277887E+00
(PID.TID 0000.0001) %MON dynstat_wvel_mean            =  -2.0036486662424E-05
(PID.TID 0000.0001) %MON dynstat_wvel_sd              =   8.9743898618870E-02
(PID.TID 0000.0001) %MON dynstat_theta_max            =   4.5725203052530E+02
(PID.TID 0000.0001) %MON dynstat_theta_min            =   3.0706817554695E+02
(PID.TID 0000.0001) %MON dynstat_theta_mean           =   3.6720125039555E+02
(PID.TID 0000.0001) %MON dynstat_theta_sd             =   4.2419981555555E+01
(PID.TID 0000.0001) %MON dynstat_salt_max             =   5.8430837463389E+01
(PID.TID 0000.0001) %MON dynstat_salt_min             =  -5.4728915072754E+00
(PID.TID 0000.0001) %MON dynstat_salt_mean            =   1.2054106311636E+01
(PID.TID 0000.0001) %MON dynstat_salt_sd              =   1.0963575880756E+01
(PID.TID 0000.0001) %MON advcfl_uvel_max              =   8.7350931604510E-02
(PID.TID 0000.0001) %MON advcfl_vvel_max              =   7.6608489242530E-02
(PID.TID 0000.0001) %MON advcfl_wvel_max              =   6.1283857131436E-02
(PID.TID 0000.0001) %MON advcfl_W_hf_max              =   6.1283857131436E-02
(PID.TID 0000.0001) %MON ke_max                       =   1.0794220260351E+03
(PID.TID 0000.0001) %MON ke_mean                      =   7.1273267397552E+01
(PID.TID 0000.0001) // =======================================================
(PID.TID 0000.0001) // End MONITOR dynamic field statistics
(PID.TID 0000.0001) // =======================================================
 cg2d: Sum(rhs),rhsMax =  -9.29389898374211E-09  3.11926540301327E+03
(PID.TID 0000.0001)                    cg2d_init_res =    1.63076496552981E+02
(PID.TID 0000.0001)                       cg2d_iters =    15
(PID.TID 0000.0001)                         cg2d_res =    2.36294835914817E-12
(PID.TID 0000.0001) // =======================================================
(PID.TID 0000.0001) // Begin MONITOR dynamic field statistics
(PID.TID 0000.0001) // =======================================================
(PID.TID 0000.0001) %MON time_tsnumber                =                  8643
(PID.TID 0000.0001) %MON time_secondsf                =   5.1858000000000E+06
(PID.TID 0000.0001) %MON time_secondsi                =               5185800
(PID.TID 0000.0001) %MON dynstat_eta_max              =   9.9276507823961E+02
(PID.TID 0000.0001) %MON dynstat_eta_min              =  -1.4637031545489E+03
(PID.TID 0000.0001) %MON dynstat_eta_mean             =   3.3187852326033E+00
(PID.TID 0000.0001) %MON dynstat_eta_sd               =   4.6363063463911E+02
(PID.TID 0000.0001) %MON dynstat_uvel_max             =   4.4079976403642E+01
(PID.TID 0000.0001) %MON dynstat_uvel_min             =  -3.1832024197277E+01
(PID.TID 0000.0001) %MON dynstat_uvel_mean            =   3.5065742336848E+00
(PID.TID 0000.0001) %MON dynstat_uvel_sd              =   1.0594748735905E+01
(PID.TID 0000.0001) %MON dynstat_vvel_max             =   2.2000462411438E+01
(PID.TID 0000.0001) %MON dynstat_vvel_min             =  -3.9778250067555E+01
(PID.TID 0000.0001) %MON dynstat_vvel_mean            =  -1.2377880485122E-02
(PID.TID 0000.0001) %MON dynstat_vvel_sd              =   4.3403330224740E+00
(PID.TID 0000.0001) %MON dynstat_wvel_max             =   7.6963558694472E-01
(PID.TID 0000.0001) %MON dynstat_wvel_min             =  -2.0781452211410E+00
(PID.TID 0000.0001) %MON dynstat_wvel_mean            =  -1.9567011360815E-05
(PID.TID 0000.0001) %MON dynstat_wvel_sd              =   8.9739183965662E-02
(PID.TID 0000.0001) %MON dynstat_theta_max            =   4.5726675393146E+02
(PID.TID 0000.0001) %MON dynstat_theta_min            =   3.0702479280813E+02
(PID.TID 0000.0001) %MON dynstat_theta_mean           =   3.6720193756564E+02
(PID.TID 0000.0001) %MON dynstat_theta_sd             =   4.2419676986925E+01
(PID.TID 0000.0001) %MON dynstat_salt_max             =   5.8429240173000E+01
(PID.TID 0000.0001) %MON dynstat_salt_min             =  -5.4736084552800E+00
(PID.TID 0000.0001) %MON dynstat_salt_mean            =   1.2053833493547E+01
(PID.TID 0000.0001) %MON dynstat_salt_sd              =   1.0963541512756E+01
(PID.TID 0000.0001) %MON advcfl_uvel_max              =   8.7196197377922E-02
(PID.TID 0000.0001) %MON advcfl_vvel_max              =   7.6328652066123E-02
(PID.TID 0000.0001) %MON advcfl_wvel_max              =   6.0969180816902E-02
(PID.TID 0000.0001) %MON advcfl_W_hf_max              =   6.0969180816902E-02
(PID.TID 0000.0001) %MON ke_max                       =   1.0770041925452E+03
(PID.TID 0000.0001) %MON ke_mean                      =   7.1282168057387E+01
(PID.TID 0000.0001) // =======================================================
(PID.TID 0000.0001) // End MONITOR dynamic field statistics
(PID.TID 0000.0001) // =======================================================
 cg2d: Sum(rhs),rhsMax =  -9.66633706411812E-09  3.12405011472205E+03
(PID.TID 0000.0001)                    cg2d_init_res =    1.62688665215093E+02
(PID.TID 0000.0001)                       cg2d_iters =    15
(PID.TID 0000.0001)                         cg2d_res =    2.34925954740612E-12
(PID.TID 0000.0001) // =======================================================
(PID.TID 0000.0001) // Begin MONITOR dynamic field statistics
(PID.TID 0000.0001) // =======================================================
(PID.TID 0000.0001) %MON time_tsnumber                =                  8644
(PID.TID 0000.0001) %MON time_secondsf                =   5.1864000000000E+06
(PID.TID 0000.0001) %MON time_secondsi                =               5186400
(PID.TID 0000.0001) %MON dynstat_eta_max              =   9.9345094323224E+02
(PID.TID 0000.0001) %MON dynstat_eta_min              =  -1.4653926163479E+03
(PID.TID 0000.0001) %MON dynstat_eta_mean             =   3.3168162784234E+00
(PID.TID 0000.0001) %MON dynstat_eta_sd               =   4.6375677142185E+02
(PID.TID 0000.0001) %MON dynstat_uvel_max             =   4.3996539259610E+01
(PID.TID 0000.0001) %MON dynstat_uvel_min             =  -3.2065820355032E+01
(PID.TID 0000.0001) %MON dynstat_uvel_mean            =   3.5069732056317E+00
(PID.TID 0000.0001) %MON dynstat_uvel_sd              =   1.0595010445978E+01
(PID.TID 0000.0001) %MON dynstat_vvel_max             =   2.2003291631909E+01
(PID.TID 0000.0001) %MON dynstat_vvel_min             =  -3.9629418773013E+01
(PID.TID 0000.0001) %MON dynstat_vvel_mean            =  -1.2468598990668E-02
(PID.TID 0000.0001) %MON dynstat_vvel_sd              =   4.3414527558382E+00
(PID.TID 0000.0001) %MON dynstat_wvel_max             =   7.6887417405494E-01
(PID.TID 0000.0001) %MON dynstat_wvel_min             =  -2.0750771616958E+00
(PID.TID 0000.0001) %MON dynstat_wvel_mean            =  -1.9100551491241E-05
(PID.TID 0000.0001) %MON dynstat_wvel_sd              =   8.9735681588747E-02
(PID.TID 0000.0001) %MON dynstat_theta_max            =   4.5728153695076E+02
(PID.TID 0000.0001) %MON dynstat_theta_min            =   3.0698395214280E+02
(PID.TID 0000.0001) %MON dynstat_theta_mean           =   3.6720262818740E+02
(PID.TID 0000.0001) %MON dynstat_theta_sd             =   4.2419373833320E+01
(PID.TID 0000.0001) %MON dynstat_salt_max             =   5.8427974759921E+01
(PID.TID 0000.0001) %MON dynstat_salt_min             =  -5.4743275299960E+00
(PID.TID 0000.0001) %MON dynstat_salt_mean            =   1.2053560346280E+01
(PID.TID 0000.0001) %MON dynstat_salt_sd              =   1.0963506949741E+01
(PID.TID 0000.0001) %MON advcfl_uvel_max              =   8.7031147342208E-02
(PID.TID 0000.0001) %MON advcfl_vvel_max              =   7.6043066549457E-02
(PID.TID 0000.0001) %MON advcfl_wvel_max              =   6.0646384768726E-02
(PID.TID 0000.0001) %MON advcfl_W_hf_max              =   6.0646384768726E-02
(PID.TID 0000.0001) %MON ke_max                       =   1.0744181179238E+03
(PID.TID 0000.0001) %MON ke_mean                      =   7.1290990336764E+01
(PID.TID 0000.0001) // =======================================================
(PID.TID 0000.0001) // End MONITOR dynamic field statistics
(PID.TID 0000.0001) // =======================================================
 cg2d: Sum(rhs),rhsMax =  -9.32277544052340E-09  3.12877059098154E+03
(PID.TID 0000.0001)                    cg2d_init_res =    1.62489174782670E+02
(PID.TID 0000.0001)                       cg2d_iters =    15
(PID.TID 0000.0001)                         cg2d_res =    2.34650068683241E-12
(PID.TID 0000.0001) // =======================================================
(PID.TID 0000.0001) // Begin MONITOR dynamic field statistics
(PID.TID 0000.0001) // =======================================================
(PID.TID 0000.0001) %MON time_tsnumber                =                  8645
(PID.TID 0000.0001) %MON time_secondsf                =   5.1870000000000E+06
(PID.TID 0000.0001) %MON time_secondsi                =               5187000
(PID.TID 0000.0001) %MON dynstat_eta_max              =   9.9415526528056E+02
(PID.TID 0000.0001) %MON dynstat_eta_min              =  -1.4670407564324E+03
(PID.TID 0000.0001) %MON dynstat_eta_mean             =   3.3147580845819E+00
(PID.TID 0000.0001) %MON dynstat_eta_sd               =   4.6388306165141E+02
(PID.TID 0000.0001) %MON dynstat_uvel_max             =   4.3907974577756E+01
(PID.TID 0000.0001) %MON dynstat_uvel_min             =  -3.2288151702282E+01
(PID.TID 0000.0001) %MON dynstat_uvel_mean            =   3.5073691197223E+00
(PID.TID 0000.0001) %MON dynstat_uvel_sd              =   1.0595270504927E+01
(PID.TID 0000.0001) %MON dynstat_vvel_max             =   2.1993034644079E+01
(PID.TID 0000.0001) %MON dynstat_vvel_min             =  -3.9477427779861E+01
(PID.TID 0000.0001) %MON dynstat_vvel_mean            =  -1.2557255565556E-02
(PID.TID 0000.0001) %MON dynstat_vvel_sd              =   4.3425600441271E+00
(PID.TID 0000.0001) %MON dynstat_wvel_max             =   7.6762169180555E-01
(PID.TID 0000.0001) %MON dynstat_wvel_min             =  -2.0720987460791E+00
(PID.TID 0000.0001) %MON dynstat_wvel_mean            =  -1.8640012949590E-05
(PID.TID 0000.0001) %MON dynstat_wvel_sd              =   8.9733773550616E-02
(PID.TID 0000.0001) %MON dynstat_theta_max            =   4.5729637964761E+02
(PID.TID 0000.0001) %MON dynstat_theta_min            =   3.0694563528107E+02
(PID.TID 0000.0001) %MON dynstat_theta_mean           =   3.6720332386344E+02
(PID.TID 0000.0001) %MON dynstat_theta_sd             =   4.2419072020343E+01
(PID.TID 0000.0001) %MON dynstat_salt_max             =   5.8426998024468E+01
(PID.TID 0000.0001) %MON dynstat_salt_min             =  -5.4750497220879E+00
(PID.TID 0000.0001) %MON dynstat_salt_mean            =   1.2053286362710E+01
(PID.TID 0000.0001) %MON dynstat_salt_sd              =   1.0963471275632E+01
(PID.TID 0000.0001) %MON advcfl_uvel_max              =   8.6855954338271E-02
(PID.TID 0000.0001) %MON advcfl_vvel_max              =   7.5751418032647E-02
(PID.TID 0000.0001) %MON advcfl_wvel_max              =   6.0315660150552E-02
(PID.TID 0000.0001) %MON advcfl_W_hf_max              =   6.0315660150552E-02
(PID.TID 0000.0001) %MON ke_max                       =   1.0716675258398E+03
(PID.TID 0000.0001) %MON ke_mean                      =   7.1299734113217E+01
(PID.TID 0000.0001) // =======================================================
(PID.TID 0000.0001) // End MONITOR dynamic field statistics
(PID.TID 0000.0001) // =======================================================
 cg2d: Sum(rhs),rhsMax =  -9.18475961952936E-09  3.13337761444049E+03
(PID.TID 0000.0001)                    cg2d_init_res =    1.62357689503934E+02
(PID.TID 0000.0001)                       cg2d_iters =    15
(PID.TID 0000.0001)                         cg2d_res =    2.34821471611207E-12
(PID.TID 0000.0001) // =======================================================
(PID.TID 0000.0001) // Begin MONITOR dynamic field statistics
(PID.TID 0000.0001) // =======================================================
(PID.TID 0000.0001) %MON time_tsnumber                =                  8646
(PID.TID 0000.0001) %MON time_secondsf                =   5.1876000000000E+06
(PID.TID 0000.0001) %MON time_secondsi                =               5187600
(PID.TID 0000.0001) %MON dynstat_eta_max              =   9.9487788455520E+02
(PID.TID 0000.0001) %MON dynstat_eta_min              =  -1.4686306666718E+03
(PID.TID 0000.0001) %MON dynstat_eta_mean             =   3.3126058651174E+00
(PID.TID 0000.0001) %MON dynstat_eta_sd               =   4.6400961833651E+02
(PID.TID 0000.0001) %MON dynstat_uvel_max             =   4.3814361204817E+01
(PID.TID 0000.0001) %MON dynstat_uvel_min             =  -3.2499233721467E+01
(PID.TID 0000.0001) %MON dynstat_uvel_mean            =   3.5077617877867E+00
(PID.TID 0000.0001) %MON dynstat_uvel_sd              =   1.0595528515811E+01
(PID.TID 0000.0001) %MON dynstat_vvel_max             =   2.1969693405209E+01
(PID.TID 0000.0001) %MON dynstat_vvel_min             =  -3.9322120521557E+01
(PID.TID 0000.0001) %MON dynstat_vvel_mean            =  -1.2644313739065E-02
(PID.TID 0000.0001) %MON dynstat_vvel_sd              =   4.3436556034845E+00
(PID.TID 0000.0001) %MON dynstat_wvel_max             =   7.6593506083510E-01
(PID.TID 0000.0001) %MON dynstat_wvel_min             =  -2.0692005007769E+00
(PID.TID 0000.0001) %MON dynstat_wvel_mean            =  -1.8188345999045E-05
(PID.TID 0000.0001) %MON dynstat_wvel_sd              =   8.9733882497730E-02
(PID.TID 0000.0001) %MON dynstat_theta_max            =   4.5731128198477E+02
(PID.TID 0000.0001) %MON dynstat_theta_min            =   3.0690981867619E+02
(PID.TID 0000.0001) %MON dynstat_theta_mean           =   3.6720402390297E+02
(PID.TID 0000.0001) %MON dynstat_theta_sd             =   4.2418771925295E+01
(PID.TID 0000.0001) %MON dynstat_salt_max             =   5.8426278453277E+01
(PID.TID 0000.0001) %MON dynstat_salt_min             =  -5.4757760196348E+00
(PID.TID 0000.0001) %MON dynstat_salt_mean            =   1.2053011691728E+01
(PID.TID 0000.0001) %MON dynstat_salt_sd              =   1.0963434627842E+01
(PID.TID 0000.0001) %MON advcfl_uvel_max              =   8.6670774335694E-02
(PID.TID 0000.0001) %MON advcfl_vvel_max              =   7.5453406087367E-02
(PID.TID 0000.0001) %MON advcfl_wvel_max              =   5.9977002522948E-02
(PID.TID 0000.0001) %MON advcfl_W_hf_max              =   5.9977002522948E-02
(PID.TID 0000.0001) %MON ke_max                       =   1.0687569393386E+03
(PID.TID 0000.0001) %MON ke_mean                      =   7.1308397456953E+01
(PID.TID 0000.0001) // =======================================================
(PID.TID 0000.0001) // End MONITOR dynamic field statistics
(PID.TID 0000.0001) // =======================================================
 cg2d: Sum(rhs),rhsMax =  -9.20158527151216E-09  3.13779873918038E+03
(PID.TID 0000.0001)                    cg2d_init_res =    1.62188359821489E+02
(PID.TID 0000.0001)                       cg2d_iters =    15
(PID.TID 0000.0001)                         cg2d_res =    2.34408070033324E-12
(PID.TID 0000.0001) // =======================================================
(PID.TID 0000.0001) // Begin MONITOR dynamic field statistics
(PID.TID 0000.0001) // =======================================================
(PID.TID 0000.0001) %MON time_tsnumber                =                  8647
(PID.TID 0000.0001) %MON time_secondsf                =   5.1882000000000E+06
(PID.TID 0000.0001) %MON time_secondsi                =               5188200
(PID.TID 0000.0001) %MON dynstat_eta_max              =   9.9561826672983E+02
(PID.TID 0000.0001) %MON dynstat_eta_min              =  -1.4701382681763E+03
(PID.TID 0000.0001) %MON dynstat_eta_mean             =   3.3103554802343E+00
(PID.TID 0000.0001) %MON dynstat_eta_sd               =   4.6413655469010E+02
(PID.TID 0000.0001) %MON dynstat_uvel_max             =   4.3715790778960E+01
(PID.TID 0000.0001) %MON dynstat_uvel_min             =  -3.2699239376823E+01
(PID.TID 0000.0001) %MON dynstat_uvel_mean            =   3.5081510237987E+00
(PID.TID 0000.0001) %MON dynstat_uvel_sd              =   1.0595784209816E+01
(PID.TID 0000.0001) %MON dynstat_vvel_max             =   2.1933382556120E+01
(PID.TID 0000.0001) %MON dynstat_vvel_min             =  -3.9163349875523E+01
(PID.TID 0000.0001) %MON dynstat_vvel_mean            =  -1.2730362056749E-02
(PID.TID 0000.0001) %MON dynstat_vvel_sd              =   4.3447396751622E+00
(PID.TID 0000.0001) %MON dynstat_wvel_max             =   7.6386583061093E-01
(PID.TID 0000.0001) %MON dynstat_wvel_min             =  -2.0663643798438E+00
(PID.TID 0000.0001) %MON dynstat_wvel_mean            =  -1.7746844181323E-05
(PID.TID 0000.0001) %MON dynstat_wvel_sd              =   8.9736169477111E-02
(PID.TID 0000.0001) %MON dynstat_theta_max            =   4.5732624383426E+02
(PID.TID 0000.0001) %MON dynstat_theta_min            =   3.0687647435569E+02
(PID.TID 0000.0001) %MON dynstat_theta_mean           =   3.6720472928235E+02
(PID.TID 0000.0001) %MON dynstat_theta_sd             =   4.2418474155236E+01
(PID.TID 0000.0001) %MON dynstat_salt_max             =   5.8425794076421E+01
(PID.TID 0000.0001) %MON dynstat_salt_min             =  -5.4765073741681E+00
(PID.TID 0000.0001) %MON dynstat_salt_mean            =   1.2052736060974E+01
(PID.TID 0000.0001) %MON dynstat_salt_sd              =   1.0963397044129E+01
(PID.TID 0000.0001) %MON advcfl_uvel_max              =   8.6475788607254E-02
(PID.TID 0000.0001) %MON advcfl_vvel_max              =   7.5148748406880E-02
(PID.TID 0000.0001) %MON advcfl_wvel_max              =   5.9630277035464E-02
(PID.TID 0000.0001) %MON advcfl_W_hf_max              =   5.9630277035464E-02
(PID.TID 0000.0001) %MON ke_max                       =   1.0656918379771E+03
(PID.TID 0000.0001) %MON ke_mean                      =   7.1316977834147E+01
(PID.TID 0000.0001) // =======================================================
(PID.TID 0000.0001) // End MONITOR dynamic field statistics
(PID.TID 0000.0001) // =======================================================
 cg2d: Sum(rhs),rhsMax =  -9.51513356994838E-09  3.14196536236924E+03
(PID.TID 0000.0001)                    cg2d_init_res =    1.62132147593232E+02
(PID.TID 0000.0001)                       cg2d_iters =    15
(PID.TID 0000.0001)                         cg2d_res =    2.34245479711784E-12
(PID.TID 0000.0001) // =======================================================
(PID.TID 0000.0001) // Begin MONITOR dynamic field statistics
(PID.TID 0000.0001) // =======================================================
(PID.TID 0000.0001) %MON time_tsnumber                =                  8648
(PID.TID 0000.0001) %MON time_secondsf                =   5.1888000000000E+06
(PID.TID 0000.0001) %MON time_secondsi                =               5188800
(PID.TID 0000.0001) %MON dynstat_eta_max              =   9.9637558169897E+02
(PID.TID 0000.0001) %MON dynstat_eta_min              =  -1.4715408442258E+03
(PID.TID 0000.0001) %MON dynstat_eta_mean             =   3.3080043393340E+00
(PID.TID 0000.0001) %MON dynstat_eta_sd               =   4.6426398589680E+02
(PID.TID 0000.0001) %MON dynstat_uvel_max             =   4.3612377838434E+01
(PID.TID 0000.0001) %MON dynstat_uvel_min             =  -3.2888296146095E+01
(PID.TID 0000.0001) %MON dynstat_uvel_mean            =   3.5085366479623E+00
(PID.TID 0000.0001) %MON dynstat_uvel_sd              =   1.0596037377813E+01
(PID.TID 0000.0001) %MON dynstat_vvel_max             =   2.1884229201353E+01
(PID.TID 0000.0001) %MON dynstat_vvel_min             =  -3.9000984649927E+01
(PID.TID 0000.0001) %MON dynstat_vvel_mean            =  -1.2815753176053E-02
(PID.TID 0000.0001) %MON dynstat_vvel_sd              =   4.3458122024957E+00
(PID.TID 0000.0001) %MON dynstat_wvel_max             =   7.6145699731726E-01
(PID.TID 0000.0001) %MON dynstat_wvel_min             =  -2.0635682371508E+00
(PID.TID 0000.0001) %MON dynstat_wvel_mean            =  -1.7316241767381E-05
(PID.TID 0000.0001) %MON dynstat_wvel_sd              =   8.9740488889274E-02
(PID.TID 0000.0001) %MON dynstat_theta_max            =   4.5734126488620E+02
(PID.TID 0000.0001) %MON dynstat_theta_min            =   3.0684556973890E+02
(PID.TID 0000.0001) %MON dynstat_theta_mean           =   3.6720544236522E+02
(PID.TID 0000.0001) %MON dynstat_theta_sd             =   4.2418179777494E+01
(PID.TID 0000.0001) %MON dynstat_salt_max             =   5.8425511890463E+01
(PID.TID 0000.0001) %MON dynstat_salt_min             =  -5.4772446646116E+00
(PID.TID 0000.0001) %MON dynstat_salt_mean            =   1.2052458818113E+01
(PID.TID 0000.0001) %MON dynstat_salt_sd              =   1.0963358171637E+01
(PID.TID 0000.0001) %MON advcfl_uvel_max              =   8.6271223725210E-02
(PID.TID 0000.0001) %MON advcfl_vvel_max              =   7.4837193253218E-02
(PID.TID 0000.0001) %MON advcfl_wvel_max              =   5.9275288554374E-02
(PID.TID 0000.0001) %MON advcfl_W_hf_max              =   5.9275288554374E-02
(PID.TID 0000.0001) %MON ke_max                       =   1.0624787941619E+03
(PID.TID 0000.0001) %MON ke_mean                      =   7.1325472125039E+01
(PID.TID 0000.0001) // =======================================================
(PID.TID 0000.0001) // End MONITOR dynamic field statistics
(PID.TID 0000.0001) // =======================================================
 cg2d: Sum(rhs),rhsMax =  -9.22636900213547E-09  3.14582891810178E+03
(PID.TID 0000.0001)                    cg2d_init_res =    1.62208695231095E+02
(PID.TID 0000.0001)                       cg2d_iters =    15
(PID.TID 0000.0001)                         cg2d_res =    2.34576793100746E-12
(PID.TID 0000.0001) // =======================================================
(PID.TID 0000.0001) // Begin MONITOR dynamic field statistics
(PID.TID 0000.0001) // =======================================================
(PID.TID 0000.0001) %MON time_tsnumber                =                  8649
(PID.TID 0000.0001) %MON time_secondsf                =   5.1894000000000E+06
(PID.TID 0000.0001) %MON time_secondsi                =               5189400
(PID.TID 0000.0001) %MON dynstat_eta_max              =   9.9714880008440E+02
(PID.TID 0000.0001) %MON dynstat_eta_min              =  -1.4728220456412E+03
(PID.TID 0000.0001) %MON dynstat_eta_mean             =   3.3055522860755E+00
(PID.TID 0000.0001) %MON dynstat_eta_sd               =   4.6439204502677E+02
(PID.TID 0000.0001) %MON dynstat_uvel_max             =   4.3504268325752E+01
(PID.TID 0000.0001) %MON dynstat_uvel_min             =  -3.3066489498999E+01
(PID.TID 0000.0001) %MON dynstat_uvel_mean            =   3.5089185105803E+00
(PID.TID 0000.0001) %MON dynstat_uvel_sd              =   1.0596287865184E+01
(PID.TID 0000.0001) %MON dynstat_vvel_max             =   2.1821985026891E+01
(PID.TID 0000.0001) %MON dynstat_vvel_min             =  -3.8834917958192E+01
(PID.TID 0000.0001) %MON dynstat_vvel_mean            =  -1.2900702603862E-02
(PID.TID 0000.0001) %MON dynstat_vvel_sd              =   4.3468726386716E+00
(PID.TID 0000.0001) %MON dynstat_wvel_max             =   7.5874215651393E-01
(PID.TID 0000.0001) %MON dynstat_wvel_min             =  -2.0607890585080E+00
(PID.TID 0000.0001) %MON dynstat_wvel_mean            =  -1.6895809229068E-05
(PID.TID 0000.0001) %MON dynstat_wvel_sd              =   8.9746568829145E-02
(PID.TID 0000.0001) %MON dynstat_theta_max            =   4.5735634460775E+02
(PID.TID 0000.0001) %MON dynstat_theta_min            =   3.0681707345327E+02
(PID.TID 0000.0001) %MON dynstat_theta_mean           =   3.6720616487123E+02
(PID.TID 0000.0001) %MON dynstat_theta_sd             =   4.2417889566694E+01
(PID.TID 0000.0001) %MON dynstat_salt_max             =   5.8425402265135E+01
(PID.TID 0000.0001) %MON dynstat_salt_min             =  -5.4779887047143E+00
(PID.TID 0000.0001) %MON dynstat_salt_mean            =   1.2052179474112E+01
(PID.TID 0000.0001) %MON dynstat_salt_sd              =   1.0963317256147E+01
(PID.TID 0000.0001) %MON advcfl_uvel_max              =   8.6057368383730E-02
(PID.TID 0000.0001) %MON advcfl_vvel_max              =   7.4518535526655E-02
(PID.TID 0000.0001) %MON advcfl_wvel_max              =   5.8911833690463E-02
(PID.TID 0000.0001) %MON advcfl_W_hf_max              =   5.8911833690463E-02
(PID.TID 0000.0001) %MON ke_max                       =   1.0591256150822E+03
(PID.TID 0000.0001) %MON ke_mean                      =   7.1333875853286E+01
(PID.TID 0000.0001) // =======================================================
(PID.TID 0000.0001) // End MONITOR dynamic field statistics
(PID.TID 0000.0001) // =======================================================
 cg2d: Sum(rhs),rhsMax =  -9.28730514715426E-09  3.14936580370797E+03
(PID.TID 0000.0001)                    cg2d_init_res =    1.62420877312132E+02
(PID.TID 0000.0001)                       cg2d_iters =    15
(PID.TID 0000.0001)                         cg2d_res =    2.35826431863154E-12
(PID.TID 0000.0001) // =======================================================
(PID.TID 0000.0001) // Begin MONITOR dynamic field statistics
(PID.TID 0000.0001) // =======================================================
(PID.TID 0000.0001) %MON time_tsnumber                =                  8650
(PID.TID 0000.0001) %MON time_secondsf                =   5.1900000000000E+06
(PID.TID 0000.0001) %MON time_secondsi                =               5190000
(PID.TID 0000.0001) %MON dynstat_eta_max              =   9.9793679634024E+02
(PID.TID 0000.0001) %MON dynstat_eta_min              =  -1.4739733446434E+03
(PID.TID 0000.0001) %MON dynstat_eta_mean             =   3.3030017704661E+00
(PID.TID 0000.0001) %MON dynstat_eta_sd               =   4.6452086621326E+02
(PID.TID 0000.0001) %MON dynstat_uvel_max             =   4.3391634031868E+01
(PID.TID 0000.0001) %MON dynstat_uvel_min             =  -3.3233869241330E+01
(PID.TID 0000.0001) %MON dynstat_uvel_mean            =   3.5092965011627E+00
(PID.TID 0000.0001) %MON dynstat_uvel_sd              =   1.0596535314024E+01
(PID.TID 0000.0001) %MON dynstat_vvel_max             =   2.1746493215331E+01
(PID.TID 0000.0001) %MON dynstat_vvel_min             =  -3.8665071707650E+01
(PID.TID 0000.0001) %MON dynstat_vvel_mean            =  -1.2985368480067E-02
(PID.TID 0000.0001) %MON dynstat_vvel_sd              =   4.3479207204049E+00
(PID.TID 0000.0001) %MON dynstat_wvel_max             =   7.5574602349092E-01
(PID.TID 0000.0001) %MON dynstat_wvel_min             =  -2.0580048775104E+00
(PID.TID 0000.0001) %MON dynstat_wvel_mean            =  -1.6483456447600E-05
(PID.TID 0000.0001) %MON dynstat_wvel_sd              =   8.9754020655489E-02
(PID.TID 0000.0001) %MON dynstat_theta_max            =   4.5737148225176E+02
(PID.TID 0000.0001) %MON dynstat_theta_min            =   3.0679095947904E+02
(PID.TID 0000.0001) %MON dynstat_theta_mean           =   3.6720689545694E+02
(PID.TID 0000.0001) %MON dynstat_theta_sd             =   4.2417602843056E+01
(PID.TID 0000.0001) %MON dynstat_salt_max             =   5.8425438508728E+01
(PID.TID 0000.0001) %MON dynstat_salt_min             =  -5.4787402514410E+00
(PID.TID 0000.0001) %MON dynstat_salt_mean            =   1.2051898354941E+01
(PID.TID 0000.0001) %MON dynstat_salt_sd              =   1.0963274089278E+01
(PID.TID 0000.0001) %MON advcfl_uvel_max              =   8.5834562408720E-02
(PID.TID 0000.0001) %MON advcfl_vvel_max              =   7.4192625378764E-02
(PID.TID 0000.0001) %MON advcfl_wvel_max              =   5.8539732484234E-02
(PID.TID 0000.0001) %MON advcfl_W_hf_max              =   5.8539732484234E-02
(PID.TID 0000.0001) %MON ke_max                       =   1.0556408271243E+03
(PID.TID 0000.0001) %MON ke_mean                      =   7.1342183702340E+01
(PID.TID 0000.0001) // =======================================================
(PID.TID 0000.0001) // End MONITOR dynamic field statistics
(PID.TID 0000.0001) // =======================================================
(PID.TID 0000.0001)  Seconds in section "ALL                [THE_MODEL_MAIN]":
(PID.TID 0000.0001)          User time:   5.039999714121222
(PID.TID 0000.0001)        System time:  8.9999996125698090E-002
(PID.TID 0000.0001)    Wall clock time:   5.114108085632324
(PID.TID 0000.0001)         No. starts:           1
(PID.TID 0000.0001)          No. stops:           1
(PID.TID 0000.0001)  Seconds in section "INITIALISE_FIXED   [THE_MODEL_MAIN]":
(PID.TID 0000.0001)          User time:  0.1199999954551458
(PID.TID 0000.0001)        System time:  9.9999997764825821E-003
(PID.TID 0000.0001)    Wall clock time:  0.1240750551223755
(PID.TID 0000.0001)         No. starts:           1
(PID.TID 0000.0001)          No. stops:           1
(PID.TID 0000.0001)  Seconds in section "THE_MAIN_LOOP      [THE_MODEL_MAIN]":
(PID.TID 0000.0001)          User time:   4.879999756813049
(PID.TID 0000.0001)        System time:  7.9999996349215508E-002
(PID.TID 0000.0001)    Wall clock time:   4.955258011817932
(PID.TID 0000.0001)         No. starts:           1
(PID.TID 0000.0001)          No. stops:           1
(PID.TID 0000.0001)  Seconds in section "INITIALISE_VARIA    [THE_MAIN_LOOP]":
(PID.TID 0000.0001)          User time:  6.0000002384185791E-002
(PID.TID 0000.0001)        System time:  1.9999999552965164E-002
(PID.TID 0000.0001)    Wall clock time:  8.1404089927673340E-002
(PID.TID 0000.0001)         No. starts:           1
(PID.TID 0000.0001)          No. stops:           1
(PID.TID 0000.0001)  Seconds in section "WRITE_STATE         [THE_MAIN_LOOP]":
(PID.TID 0000.0001)          User time:  1.9999995827674866E-002
(PID.TID 0000.0001)        System time:  0.0000000000000000E+000
(PID.TID 0000.0001)    Wall clock time:  1.6366958618164063E-002
(PID.TID 0000.0001)         No. starts:           1
(PID.TID 0000.0001)          No. stops:           1
(PID.TID 0000.0001)  Seconds in section "MONITOR             [THE_MAIN_LOOP]":
(PID.TID 0000.0001)          User time:  1.0000005364418030E-002
(PID.TID 0000.0001)        System time:  0.0000000000000000E+000
(PID.TID 0000.0001)    Wall clock time:  1.6444087028503418E-002
(PID.TID 0000.0001)         No. starts:           1
(PID.TID 0000.0001)          No. stops:           1
(PID.TID 0000.0001)  Seconds in section "MAIN LOOP           [THE_MAIN_LOOP]":
(PID.TID 0000.0001)          User time:   4.789999753236771
(PID.TID 0000.0001)        System time:  5.9999996796250343E-002
(PID.TID 0000.0001)    Wall clock time:   4.840296983718872
(PID.TID 0000.0001)         No. starts:           1
(PID.TID 0000.0001)          No. stops:           1
(PID.TID 0000.0001)  Seconds in section "FORWARD_STEP        [THE_MAIN_LOOP]":
(PID.TID 0000.0001)          User time:   4.789999753236771
(PID.TID 0000.0001)        System time:  5.9999996796250343E-002
(PID.TID 0000.0001)    Wall clock time:   4.838680148124695
(PID.TID 0000.0001)         No. starts:          10
(PID.TID 0000.0001)          No. stops:          10
(PID.TID 0000.0001)  Seconds in section "EXTERNAL_FIELDS_LOAD[THE_MAIN_LOOP]":
(PID.TID 0000.0001)          User time:  0.0000000000000000E+000
(PID.TID 0000.0001)        System time:  0.0000000000000000E+000
(PID.TID 0000.0001)    Wall clock time:  1.4780759811401367E-003
(PID.TID 0000.0001)         No. starts:          10
(PID.TID 0000.0001)          No. stops:          10
(PID.TID 0000.0001)  Seconds in section "THERMODYNAMICS      [THE_MAIN_LOOP]":
(PID.TID 0000.0001)          User time:   2.220000088214874
(PID.TID 0000.0001)        System time:  4.0000000968575478E-002
(PID.TID 0000.0001)    Wall clock time:   2.250555992126465
(PID.TID 0000.0001)         No. starts:          10
(PID.TID 0000.0001)          No. stops:          10
(PID.TID 0000.0001)  Seconds in section "AIM_DO_ATMOS_PHYS      [DYNAMICS]":
(PID.TID 0000.0001)          User time:   1.440000534057617
(PID.TID 0000.0001)        System time:  3.0000001192092896E-002
(PID.TID 0000.0001)    Wall clock time:   1.464940190315247
(PID.TID 0000.0001)         No. starts:          10
(PID.TID 0000.0001)          No. stops:          10
(PID.TID 0000.0001)  Seconds in section "DYNAMICS            [THE_MAIN_LOOP]":
(PID.TID 0000.0001)          User time:   1.180000036954880
(PID.TID 0000.0001)        System time:  1.9999995827674866E-002
(PID.TID 0000.0001)    Wall clock time:   1.195491075515747
(PID.TID 0000.0001)         No. starts:          10
(PID.TID 0000.0001)          No. stops:          10
(PID.TID 0000.0001)  Seconds in section "SOLVE_FOR_PRESSURE  [THE_MAIN_LOOP]":
(PID.TID 0000.0001)          User time:  0.2600001692771912
(PID.TID 0000.0001)        System time:  0.0000000000000000E+000
(PID.TID 0000.0001)    Wall clocNORMAL END
k time:  0.2630790472030640
(PID.TID 0000.0001)         No. starts:          10
(PID.TID 0000.0001)          No. stops:          10
(PID.TID 0000.0001)  Seconds in section "THE_CORRECTION_STEP [THE_MAIN_LOOP]":
(PID.TID 0000.0001)          User time:  0.9100000262260437
(PID.TID 0000.0001)        System time:  0.0000000000000000E+000
(PID.TID 0000.0001)    Wall clock time:  0.9036849737167358
(PID.TID 0000.0001)         No. starts:          10
(PID.TID 0000.0001)          No. stops:          10
(PID.TID 0000.0001)  Seconds in section "BLOCKING_EXCHANGES  [THE_MAIN_LOOP]":
(PID.TID 0000.0001)          User time:  3.0000090599060059E-002
(PID.TID 0000.0001)        System time:  0.0000000000000000E+000
(PID.TID 0000.0001)    Wall clock time:  1.6719341278076172E-002
(PID.TID 0000.0001)         No. starts:          10
(PID.TID 0000.0001)          No. stops:          10
(PID.TID 0000.0001)  Seconds in section "DO_THE_MODEL_IO     [THE_MAIN_LOOP]":
(PID.TID 0000.0001)          User time:  9.9997520446777344E-003
(PID.TID 0000.0001)        System time:  0.0000000000000000E+000
(PID.TID 0000.0001)    Wall clock time:  1.8321275711059570E-002
(PID.TID 0000.0001)         No. starts:          10
(PID.TID 0000.0001)          No. stops:          10
(PID.TID 0000.0001)  Seconds in section "WRITE_CHECKPOINT    [THE_MAIN_LOOP]":
(PID.TID 0000.0001)          User time:  9.9999904632568359E-003
(PID.TID 0000.0001)        System time:  0.0000000000000000E+000
(PID.TID 0000.0001)    Wall clock time:  1.5007257461547852E-003
(PID.TID 0000.0001)         No. starts:          10
(PID.TID 0000.0001)          No. stops:          10
(PID.TID 0000.0001)  Seconds in section "WRITE_CHECKPOINT   [THE_MODEL_MAIN]":
(PID.TID 0000.0001)          User time:  3.9999961853027344E-002
(PID.TID 0000.0001)        System time:  0.0000000000000000E+000
(PID.TID 0000.0001)    Wall clock time:  3.4121990203857422E-002
(PID.TID 0000.0001)         No. starts:           1
(PID.TID 0000.0001)          No. stops:           1
(PID.TID 0000.0001) // ======================================================
(PID.TID 0000.0001) // Tile <-> Tile communication statistics
(PID.TID 0000.0001) // ======================================================
(PID.TID 0000.0001) // o Tile number: 000001
(PID.TID 0000.0001) //         No. X exchanges =              0
(PID.TID 0000.0001) //            Max. X spins =              0
(PID.TID 0000.0001) //            Min. X spins =     1000000000
(PID.TID 0000.0001) //          Total. X spins =              0
(PID.TID 0000.0001) //            Avg. X spins =       0.00E+00
(PID.TID 0000.0001) //         No. Y exchanges =              0
(PID.TID 0000.0001) //            Max. Y spins =              0
(PID.TID 0000.0001) //            Min. Y spins =     1000000000
(PID.TID 0000.0001) //          Total. Y spins =              0
(PID.TID 0000.0001) //            Avg. Y spins =       0.00E+00
(PID.TID 0000.0001) // o Thread number: 000001
(PID.TID 0000.0001) //            No. barriers =           4300
(PID.TID 0000.0001) //      Max. barrier spins =              1
(PID.TID 0000.0001) //      Min. barrier spins =              1
(PID.TID 0000.0001) //     Total barrier spins =           4300
(PID.TID 0000.0001) //      Avg. barrier spins =       1.00E+00
