(PID.TID 0000.0001) 
(PID.TID 0000.0001) // ======================================================
(PID.TID 0000.0001) //                      MITgcm UV
(PID.TID 0000.0001) //                      =========
(PID.TID 0000.0001) // ======================================================
(PID.TID 0000.0001) // execution environment starting up...
(PID.TID 0000.0001) // Run starting Wed Apr  1 14:19:48 1998
(PID.TID 0000.0001) // on melville.lcs.mit.edu
(PID.TID 0000.0001) // account cnh
(PID.TID 0000.0001) // MITgcm UV Release: $Name:  $
(PID.TID 0000.0001) 
(PID.TID 0000.0001) // =======================================================
(PID.TID 0000.0001) // Execution Environment parameter file "eedata"
(PID.TID 0000.0001) // =======================================================
(PID.TID 0000.0001) ># Example "eedata" file
(PID.TID 0000.0001) ># Lines beginning "#" are comments
(PID.TID 0000.0001) ># nTx - No. threads per process in X
(PID.TID 0000.0001) ># nTy - No. threads per process in Y
(PID.TID 0000.0001) > &EEPARMS
(PID.TID 0000.0001) > &
(PID.TID 0000.0001) ># Note: Some systems use & as the
(PID.TID 0000.0001) ># namelist terminator. Other systems
(PID.TID 0000.0001) ># use a / character (as shown here).
(PID.TID 0000.0001) 
(PID.TID 0000.0001) // =======================================================
(PID.TID 0000.0001) // Computational Grid Specification ( see files "SIZE.h" )
(PID.TID 0000.0001) //                                  ( and "eedata"       )
(PID.TID 0000.0001) // =======================================================
(PID.TID 0000.0001)      nPx =    1 ; /* No. processes in X */
(PID.TID 0000.0001)      nPy =    1 ; /* No. processes in Y */
(PID.TID 0000.0001)      nSx =    1 ; /* No. tiles in X per process */
(PID.TID 0000.0001)      nSy =    1 ; /* No. tiles in Y per process */
(PID.TID 0000.0001)      sNx =  128 ; /* Tile size in X */
(PID.TID 0000.0001)      sNy =   23 ; /* Tile size in Y */
(PID.TID 0000.0001)      OLx =    3 ; /* Tile overlap distance in X */
(PID.TID 0000.0001)      OLy =    3 ; /* Tile overlap distance in Y */
(PID.TID 0000.0001)      nTx =    1 ; /* No. threads in X per process */
(PID.TID 0000.0001)      nTy =    1 ; /* No. threads in Y per process */
(PID.TID 0000.0001)       Nr =    5 ; /* No. levels in the vertical   */
(PID.TID 0000.0001)       nX =  128 ; /* Total domain size in X ( = nPx*nSx*sNx ) */
(PID.TID 0000.0001)       nY =   23 ; /* Total domain size in Y ( = nPy*nSy*sNy ) */
(PID.TID 0000.0001)   nTiles =    1 ; /* Total no. tiles per process ( = nSx*nSy ) */
(PID.TID 0000.0001)   nProcs =    1 ; /* Total no. processes ( = nPx*nPy ) */
(PID.TID 0000.0001) nThreads =    1 ; /* Total no. threads per process ( = nTx*nTy ) */
(PID.TID 0000.0001) usingMPI =    F ; /* Flag used to control whether MPI is in use */
(PID.TID 0000.0001)                   /*  note: To execute a program with MPI calls */
(PID.TID 0000.0001)                   /*  it must be launched appropriately e.g     */
(PID.TID 0000.0001)                   /*  "mpirun -np 64 ......"                    */
(PID.TID 0000.0001) 
(PID.TID 0000.0001) // ======================================================
(PID.TID 0000.0001) // Mapping of tiles to threads
(PID.TID 0000.0001) // ======================================================
(PID.TID 0000.0001) // -o- Thread   1, tiles (   1:   1,   1:   1)
(PID.TID 0000.0001) 
(PID.TID 0000.0001) // ======================================================
(PID.TID 0000.0001) // Tile <-> Tile connectvity table
(PID.TID 0000.0001) // ======================================================
(PID.TID 0000.0001) // Tile number: 000001 (process no. = 000001)
(PID.TID 0000.0001) //        WEST: Tile = 000001, Process = 000001, Comm = put
(PID.TID 0000.0001) //                bi = 000001, bj = 000001
(PID.TID 0000.0001) //        EAST: Tile = 000001, Process = 000001, Comm = put
(PID.TID 0000.0001) //                bi = 000001, bj = 000001
(PID.TID 0000.0001) //       SOUTH: Tile = 000001, Process = 000001, Comm = put
(PID.TID 0000.0001) //                bi = 000001, bj = 000001
(PID.TID 0000.0001) //       NORTH: Tile = 000001, Process = 000001, Comm = put
(PID.TID 0000.0001) //                bi = 000001, bj = 000001
(PID.TID 0000.0001) 
(PID.TID 0000.0001) // =======================================================
(PID.TID 0000.0001) // Model parameter file "data"
(PID.TID 0000.0001) // =======================================================
(PID.TID 0000.0001) ># ====================
(PID.TID 0000.0001) ># | Model parameters |
(PID.TID 0000.0001) ># ====================
(PID.TID 0000.0001) >#
(PID.TID 0000.0001) ># Continuous equation parameters
(PID.TID 0000.0001) > &PARM01
(PID.TID 0000.0001) > tRef=281.089, 289.321, 307.191, 331.377, 432.413,
(PID.TID 0000.0001) > sRef=5*0.,
(PID.TID 0000.0001) > viscAr=1.E3,
(PID.TID 0000.0001) > viscAh=0.E6,
(PID.TID 0000.0001) > viscA4=0.E17,
(PID.TID 0000.0001) > no_slip_sides=.FALSE.,
(PID.TID 0000.0001) > no_slip_bottom=.FALSE.,
(PID.TID 0000.0001) > diffKhT=0.E3,
(PID.TID 0000.0001) > diffKrT=0.,
(PID.TID 0000.0001) > diffK4T=0.E17,
(PID.TID 0000.0001) > diffKrS=0.E2,
(PID.TID 0000.0001) > diffKhS=0.E3,
(PID.TID 0000.0001) > diffK4S=0.E17,
(PID.TID 0000.0001) > buoyancyRelation='ATMOSPHERIC',
(PID.TID 0000.0001) > eosType='IDEALGAS',
(PID.TID 0000.0001) > gravity=9.81,
(PID.TID 0000.0001) > rhonil=1.0,
(PID.TID 0000.0001) > rhoConst=1.0,
(PID.TID 0000.0001) > rigidLid=.FALSE.,
(PID.TID 0000.0001) > implicitFreeSurface=.TRUE.,
(PID.TID 0000.0001) > staggerTimeStep=.TRUE.,
(PID.TID 0000.0001) > nonHydrostatic=.FALSE.,
(PID.TID 0000.0001) > readBinaryPrec=64,
(PID.TID 0000.0001) > writeBinaryPrec=64,
(PID.TID 0000.0001) > hFacMin=1.0,
(PID.TID 0000.0001) > saltAdvScheme=3,
(PID.TID 0000.0001) > &
(PID.TID 0000.0001) >
(PID.TID 0000.0001) ># Elliptic solver parameters
(PID.TID 0000.0001) > &PARM02
(PID.TID 0000.0001) > cg2dMaxIters=200,
(PID.TID 0000.0001) >#cg2dTargetResidual=1.E-12,
(PID.TID 0000.0001) > cg2dTargetResWunit=1.E-18,
(PID.TID 0000.0001) > &
(PID.TID 0000.0001) >
(PID.TID 0000.0001) ># Time stepping parameters
(PID.TID 0000.0001) > &PARM03
(PID.TID 0000.0001) > niter0=8640,
(PID.TID 0000.0001) > nTimeSteps=10,
(PID.TID 0000.0001) >#endTime=31104000.,
(PID.TID 0000.0001) > deltaT=600.0,
(PID.TID 0000.0001) > abEps=0.1,
(PID.TID 0000.0001) > cAdjFreq=0.,
(PID.TID 0000.0001) > pChkptFreq=2592000.0,
(PID.TID 0000.0001) > chkptFreq=0.0,
(PID.TID 0000.0001) > dumpFreq=2592000.0,
(PID.TID 0000.0001) > taveFreq=2592000.0,
(PID.TID 0000.0001) >#monitorFreq=7200.0,
(PID.TID 0000.0001) > monitorFreq=1.0,
(PID.TID 0000.0001) > &
(PID.TID 0000.0001) >
(PID.TID 0000.0001) ># Gridding parameters
(PID.TID 0000.0001) > &PARM04
(PID.TID 0000.0001) > usingCartesianGrid=.FALSE.,
(PID.TID 0000.0001) > usingSphericalPolarGrid=.TRUE.,
(PID.TID 0000.0001) > delX=128*2.8125,
(PID.TID 0000.0001) > delY=23*2.8125,
(PID.TID 0000.0001) > delR=1.E4, 2.5E4, 3.E4, 2.E4, 1.5E4,
(PID.TID 0000.0001) > Ro_SeaLevel=1.E5,
(PID.TID 0000.0001) > groundAtK1=.TRUE.,
(PID.TID 0000.0001) > phiMin=-32.34375,
(PID.TID 0000.0001) > rSphere=6370.E3,
(PID.TID 0000.0001) > &
(PID.TID 0000.0001) >
(PID.TID 0000.0001) ># Input datasets
(PID.TID 0000.0001) > &PARM05
(PID.TID 0000.0001) > &
(PID.TID 0000.0001) 
(PID.TID 0000.0001) S/R INI_PARMS ; read PARM01 : OK
(PID.TID 0000.0001) S/R INI_PARMS ; read PARM02 : OK
(PID.TID 0000.0001) S/R INI_PARMS ; read PARM03 : OK
(PID.TID 0000.0001) S/R INI_PARMS ; read PARM04 : OK
(PID.TID 0000.0001) S/R INI_PARMS ; read PARM05 : OK
(PID.TID 0000.0001) %MON XC_max                       =   3.5859375000000E+02
(PID.TID 0000.0001) %MON XC_min                       =   1.4062500000000E+00
(PID.TID 0000.0001) %MON XC_mean                      =   1.8000000000000E+02
(PID.TID 0000.0001) %MON XC_sd                        =   1.0391987692599E+02
(PID.TID 0000.0001) %MON XG_max                       =   3.5718750000000E+02
(PID.TID 0000.0001) %MON XG_min                       =   2.8125000000000E+00
(PID.TID 0000.0001) %MON XG_mean                      =   1.8000000000000E+02
(PID.TID 0000.0001) %MON XG_sd                        =   1.0310795313651E+02
(PID.TID 0000.0001) %MON DXC_max                      =   3.1268664380261E+05
(PID.TID 0000.0001) %MON DXC_min                      =   2.6820028035446E+05
(PID.TID 0000.0001) %MON DXC_mean                     =   2.9637191437594E+05
(PID.TID 0000.0001) %MON DXC_sd                       =   1.4453062273565E+04
(PID.TID 0000.0001) %MON DXF_max                      =   3.1268664380261E+05
(PID.TID 0000.0001) %MON DXF_min                      =   2.6820028035446E+05
(PID.TID 0000.0001) %MON DXF_mean                     =   2.9637191437594E+05
(PID.TID 0000.0001) %MON DXF_sd                       =   1.4453062273565E+04
(PID.TID 0000.0001) %MON DXG_max                      =   3.1259246843155E+05
(PID.TID 0000.0001) %MON DXG_min                      =   2.6417442582260E+05
(PID.TID 0000.0001) %MON DXG_mean                     =   2.9628265269637E+05
(PID.TID 0000.0001) %MON DXG_sd                       =   1.4650049182776E+04
(PID.TID 0000.0001) %MON DXV_max                      =   3.1259246843155E+05
(PID.TID 0000.0001) %MON DXV_min                      =   2.6417442582260E+05
(PID.TID 0000.0001) %MON DXV_mean                     =   2.9628265269637E+05
(PID.TID 0000.0001) %MON DXV_sd                       =   1.4650049182776E+04
(PID.TID 0000.0001) %MON YC_max                       =   3.0937500000000E+01
(PID.TID 0000.0001) %MON YC_min                       =  -3.0937500000000E+01
(PID.TID 0000.0001) %MON YC_mean                      =   0.0000000000000E+00
(PID.TID 0000.0001) %MON YC_sd                        =   1.9075303077540E+01
(PID.TID 0000.0001) %MON YG_max                       =   2.9531250000000E+01
(PID.TID 0000.0001) %MON YG_min                       =  -3.2343750000000E+01
(PID.TID 0000.0001) %MON YG_mean                      =  -1.4062500000000E+00
(PID.TID 0000.0001) %MON YG_sd                        =   1.8656014445749E+01
(PID.TID 0000.0001) %MON DYC_max                      =   3.1268664380261E+05
(PID.TID 0000.0001) %MON DYC_min                      =   3.1268664380261E+05
(PID.TID 0000.0001) %MON DYC_mean                     =   3.1268664380262E+05
(PID.TID 0000.0001) %MON DYC_sd                       =   7.2177499532700E-09
(PID.TID 0000.0001) %MON DYF_max                      =   3.1268664380261E+05
(PID.TID 0000.0001) %MON DYF_min                      =   3.1268664380261E+05
(PID.TID 0000.0001) %MON DYF_mean                     =   3.1268664380262E+05
(PID.TID 0000.0001) %MON DYF_sd                       =   7.2177499532700E-09
(PID.TID 0000.0001) %MON DYG_max                      =   3.1268664380261E+05
(PID.TID 0000.0001) %MON DYG_min                      =   3.1268664380261E+05
(PID.TID 0000.0001) %MON DYG_mean                     =   3.1268664380262E+05
(PID.TID 0000.0001) %MON DYG_sd                       =   7.2177499532700E-09
(PID.TID 0000.0001) %MON DYU_max                      =   3.1268664380261E+05
(PID.TID 0000.0001) %MON DYU_min                      =   3.1268664380261E+05
(PID.TID 0000.0001) %MON DYU_mean                     =   3.1268664380262E+05
(PID.TID 0000.0001) %MON DYU_sd                       =   7.2177499532700E-09
(PID.TID 0000.0001) %MON RA_max                       =   9.7763121221868E+10
(PID.TID 0000.0001) %MON RA_min                       =   8.3854226074921E+10
(PID.TID 0000.0001) %MON RA_mean                      =   9.2662235391748E+10
(PID.TID 0000.0001) %MON RA_sd                        =   4.5188258183799E+09
(PID.TID 0000.0001) %MON RAW_max                      =   9.7763121221868E+10
(PID.TID 0000.0001) %MON RAW_min                      =   8.3854226074921E+10
(PID.TID 0000.0001) %MON RAW_mean                     =   9.2662235391748E+10
(PID.TID 0000.0001) %MON RAW_sd                       =   4.5188258183799E+09
(PID.TID 0000.0001) %MON RAS_max                      =   9.7733676797555E+10
(PID.TID 0000.0001) %MON RAS_min                      =   8.2595521514234E+10
(PID.TID 0000.0001) %MON RAS_mean                     =   9.2634327258881E+10
(PID.TID 0000.0001) %MON RAS_sd                       =   4.5804148099980E+09
(PID.TID 0000.0001) %MON RAZ_max                      =   9.7733676797555E+10
(PID.TID 0000.0001) %MON RAZ_min                      =   8.2595521514234E+10
(PID.TID 0000.0001) %MON RAZ_mean                     =   9.2634327258881E+10
(PID.TID 0000.0001) %MON RAZ_sd                       =   4.5804148099980E+09
(PID.TID 0000.0001) // =======================================================
(PID.TID 0000.0001) // Field Model R_low (ini_masks_etc) at iteration          1
(PID.TID 0000.0001) // CMIN =          1.000000000000000E+32
(PID.TID 0000.0001) // CMAX =         -1.000000000000000E+32
(PID.TID 0000.0001) // CINT =          0.000000000000000E+00
(PID.TID 0000.0001) // SYMBOLS (CMIN->CMAX): -abcdefghijklmnopqrstuvwxyz+
(PID.TID 0000.0001) //                  0.0: .
(PID.TID 0000.0001) // RANGE I (Lo:Hi:Step):(  -2: 131:   1)
(PID.TID 0000.0001) // RANGE J (Lo:Hi:Step):(  26:  -2:  -1)
(PID.TID 0000.0001) // RANGE K (Lo:Hi:Step):(   1:   1:   1)
(PID.TID 0000.0001) // =======================================================
(PID.TID 0000.0001) K =   1
(PID.TID 0000.0001) //                I=7       I=17      I=27      I=37      I=47      I=57      I=67      I=77      I=87      I=97      I=107     I=117     I=127
(PID.TID 0000.0001) // |--J--|**0123456|890123456|890123456|890123456|890123456|890123456|890123456|890123456|890123456|890123456|890123456|890123456|890123456|8901
(PID.TID 0000.0001) //     26 ......................................................................................................................................
(PID.TID 0000.0001) //     25 ......................................................................................................................................
(PID.TID 0000.0001) //     24 ......................................................................................................................................
(PID.TID 0000.0001) //     23 ......................................................................................................................................
(PID.TID 0000.0001) //     22 ......................................................................................................................................
(PID.TID 0000.0001) //     21 ......................................................................................................................................
(PID.TID 0000.0001) //     20 ......................................................................................................................................
(PID.TID 0000.0001) //     19 ......................................................................................................................................
(PID.TID 0000.0001) //     18 ......................................................................................................................................
(PID.TID 0000.0001) //     17 ......................................................................................................................................
(PID.TID 0000.0001) //     16 ......................................................................................................................................
(PID.TID 0000.0001) //     15 ......................................................................................................................................
(PID.TID 0000.0001) //     14 ......................................................................................................................................
(PID.TID 0000.0001) //     13 ......................................................................................................................................
(PID.TID 0000.0001) //     12 ......................................................................................................................................
(PID.TID 0000.0001) //     11 ......................................................................................................................................
(PID.TID 0000.0001) //     10 ......................................................................................................................................
(PID.TID 0000.0001) //      9 ......................................................................................................................................
(PID.TID 0000.0001) //      8 ......................................................................................................................................
(PID.TID 0000.0001) //      7 ......................................................................................................................................
(PID.TID 0000.0001) //      6 ......................................................................................................................................
(PID.TID 0000.0001) //      5 ......................................................................................................................................
(PID.TID 0000.0001) //      4 ......................................................................................................................................
(PID.TID 0000.0001) //      3 ......................................................................................................................................
(PID.TID 0000.0001) //      2 ......................................................................................................................................
(PID.TID 0000.0001) //      1 ......................................................................................................................................
(PID.TID 0000.0001) //      0 ......................................................................................................................................
(PID.TID 0000.0001) //     -1 ......................................................................................................................................
(PID.TID 0000.0001) //     -2 ......................................................................................................................................
(PID.TID 0000.0001) // =======================================================
(PID.TID 0000.0001) // END OF FIELD                                          =
(PID.TID 0000.0001) // =======================================================
(PID.TID 0000.0001) 
(PID.TID 0000.0001) // =======================================================
(PID.TID 0000.0001) // Field Model Ro_surf (ini_masks_etc) at iteration          1
(PID.TID 0000.0001) // CMIN =          1.000000000000000E+05
(PID.TID 0000.0001) // CMAX =          1.000000000000000E+05
(PID.TID 0000.0001) // CINT =          0.000000000000000E+00
(PID.TID 0000.0001) // SYMBOLS (CMIN->CMAX): -abcdefghijklmnopqrstuvwxyz+
(PID.TID 0000.0001) //                  0.0: .
(PID.TID 0000.0001) // RANGE I (Lo:Hi:Step):(  -2: 131:   1)
(PID.TID 0000.0001) // RANGE J (Lo:Hi:Step):(  26:  -2:  -1)
(PID.TID 0000.0001) // RANGE K (Lo:Hi:Step):(   1:   1:   1)
(PID.TID 0000.0001) // =======================================================
(PID.TID 0000.0001) K =   1
(PID.TID 0000.0001) //                I=7       I=17      I=27      I=37      I=47      I=57      I=67      I=77      I=87      I=97      I=107     I=117     I=127
(PID.TID 0000.0001) // |--J--|**0123456|890123456|890123456|890123456|890123456|890123456|890123456|890123456|890123456|890123456|890123456|890123456|890123456|8901
(PID.TID 0000.0001) //     26 ......................................................................................................................................
(PID.TID 0000.0001) //     25 ......................................................................................................................................
(PID.TID 0000.0001) //     24 ......................................................................................................................................
(PID.TID 0000.0001) //     23 --------------------------------------------------------------------------------------------------------------------------------------
(PID.TID 0000.0001) //     22 --------------------------------------------------------------------------------------------------------------------------------------
(PID.TID 0000.0001) //     21 --------------------------------------------------------------------------------------------------------------------------------------
(PID.TID 0000.0001) //     20 --------------------------------------------------------------------------------------------------------------------------------------
(PID.TID 0000.0001) //     19 --------------------------------------------------------------------------------------------------------------------------------------
(PID.TID 0000.0001) //     18 --------------------------------------------------------------------------------------------------------------------------------------
(PID.TID 0000.0001) //     17 --------------------------------------------------------------------------------------------------------------------------------------
(PID.TID 0000.0001) //     16 --------------------------------------------------------------------------------------------------------------------------------------
(PID.TID 0000.0001) //     15 --------------------------------------------------------------------------------------------------------------------------------------
(PID.TID 0000.0001) //     14 --------------------------------------------------------------------------------------------------------------------------------------
(PID.TID 0000.0001) //     13 --------------------------------------------------------------------------------------------------------------------------------------
(PID.TID 0000.0001) //     12 --------------------------------------------------------------------------------------------------------------------------------------
(PID.TID 0000.0001) //     11 --------------------------------------------------------------------------------------------------------------------------------------
(PID.TID 0000.0001) //     10 --------------------------------------------------------------------------------------------------------------------------------------
(PID.TID 0000.0001) //      9 --------------------------------------------------------------------------------------------------------------------------------------
(PID.TID 0000.0001) //      8 --------------------------------------------------------------------------------------------------------------------------------------
(PID.TID 0000.0001) //      7 --------------------------------------------------------------------------------------------------------------------------------------
(PID.TID 0000.0001) //      6 --------------------------------------------------------------------------------------------------------------------------------------
(PID.TID 0000.0001) //      5 --------------------------------------------------------------------------------------------------------------------------------------
(PID.TID 0000.0001) //      4 --------------------------------------------------------------------------------------------------------------------------------------
(PID.TID 0000.0001) //      3 --------------------------------------------------------------------------------------------------------------------------------------
(PID.TID 0000.0001) //      2 --------------------------------------------------------------------------------------------------------------------------------------
(PID.TID 0000.0001) //      1 --------------------------------------------------------------------------------------------------------------------------------------
(PID.TID 0000.0001) //      0 ......................................................................................................................................
(PID.TID 0000.0001) //     -1 ......................................................................................................................................
(PID.TID 0000.0001) //     -2 ......................................................................................................................................
(PID.TID 0000.0001) // =======================================================
(PID.TID 0000.0001) // END OF FIELD                                          =
(PID.TID 0000.0001) // =======================================================
(PID.TID 0000.0001) 
(PID.TID 0000.0001) // =======================================================
(PID.TID 0000.0001) // Field hFacC at iteration          1
(PID.TID 0000.0001) // CMIN =          1.000000000000000E+00
(PID.TID 0000.0001) // CMAX =          1.000000000000000E+00
(PID.TID 0000.0001) // CINT =          0.000000000000000E+00
(PID.TID 0000.0001) // SYMBOLS (CMIN->CMAX): -abcdefghijklmnopqrstuvwxyz+
(PID.TID 0000.0001) //                  0.0: .
(PID.TID 0000.0001) // RANGE I (Lo:Hi:Step):(  -2: 131:   1)
(PID.TID 0000.0001) // RANGE J (Lo:Hi:Step):(  26:  -2:  -1)
(PID.TID 0000.0001) // RANGE K (Lo:Hi:Step):(   1:   1:   1)
(PID.TID 0000.0001) // =======================================================
(PID.TID 0000.0001) K =   1
(PID.TID 0000.0001) //                I=7       I=17      I=27      I=37      I=47      I=57      I=67      I=77      I=87      I=97      I=107     I=117     I=127
(PID.TID 0000.0001) // |--J--|**0123456|890123456|890123456|890123456|890123456|890123456|890123456|890123456|890123456|890123456|890123456|890123456|890123456|8901
(PID.TID 0000.0001) //     26 ......................................................................................................................................
(PID.TID 0000.0001) //     25 ......................................................................................................................................
(PID.TID 0000.0001) //     24 ......................................................................................................................................
(PID.TID 0000.0001) //     23 --------------------------------------------------------------------------------------------------------------------------------------
(PID.TID 0000.0001) //     22 --------------------------------------------------------------------------------------------------------------------------------------
(PID.TID 0000.0001) //     21 --------------------------------------------------------------------------------------------------------------------------------------
(PID.TID 0000.0001) //     20 --------------------------------------------------------------------------------------------------------------------------------------
(PID.TID 0000.0001) //     19 --------------------------------------------------------------------------------------------------------------------------------------
(PID.TID 0000.0001) //     18 --------------------------------------------------------------------------------------------------------------------------------------
(PID.TID 0000.0001) //     17 --------------------------------------------------------------------------------------------------------------------------------------
(PID.TID 0000.0001) //     16 --------------------------------------------------------------------------------------------------------------------------------------
(PID.TID 0000.0001) //     15 --------------------------------------------------------------------------------------------------------------------------------------
(PID.TID 0000.0001) //     14 --------------------------------------------------------------------------------------------------------------------------------------
(PID.TID 0000.0001) //     13 --------------------------------------------------------------------------------------------------------------------------------------
(PID.TID 0000.0001) //     12 --------------------------------------------------------------------------------------------------------------------------------------
(PID.TID 0000.0001) //     11 --------------------------------------------------------------------------------------------------------------------------------------
(PID.TID 0000.0001) //     10 --------------------------------------------------------------------------------------------------------------------------------------
(PID.TID 0000.0001) //      9 --------------------------------------------------------------------------------------------------------------------------------------
(PID.TID 0000.0001) //      8 --------------------------------------------------------------------------------------------------------------------------------------
(PID.TID 0000.0001) //      7 --------------------------------------------------------------------------------------------------------------------------------------
(PID.TID 0000.0001) //      6 --------------------------------------------------------------------------------------------------------------------------------------
(PID.TID 0000.0001) //      5 --------------------------------------------------------------------------------------------------------------------------------------
(PID.TID 0000.0001) //      4 --------------------------------------------------------------------------------------------------------------------------------------
(PID.TID 0000.0001) //      3 --------------------------------------------------------------------------------------------------------------------------------------
(PID.TID 0000.0001) //      2 --------------------------------------------------------------------------------------------------------------------------------------
(PID.TID 0000.0001) //      1 --------------------------------------------------------------------------------------------------------------------------------------
(PID.TID 0000.0001) //      0 ......................................................................................................................................
(PID.TID 0000.0001) //     -1 ......................................................................................................................................
(PID.TID 0000.0001) //     -2 ......................................................................................................................................
(PID.TID 0000.0001) // =======================================================
(PID.TID 0000.0001) // END OF FIELD                                          =
(PID.TID 0000.0001) // =======================================================
(PID.TID 0000.0001) 
(PID.TID 0000.0001) // =======================================================
(PID.TID 0000.0001) // Field hFacW at iteration          1
(PID.TID 0000.0001) // CMIN =          1.000000000000000E+00
(PID.TID 0000.0001) // CMAX =          1.000000000000000E+00
(PID.TID 0000.0001) // CINT =          0.000000000000000E+00
(PID.TID 0000.0001) // SYMBOLS (CMIN->CMAX): -abcdefghijklmnopqrstuvwxyz+
(PID.TID 0000.0001) //                  0.0: .
(PID.TID 0000.0001) // RANGE I (Lo:Hi:Step):(  -2: 131:   1)
(PID.TID 0000.0001) // RANGE J (Lo:Hi:Step):(  26:  -2:  -1)
(PID.TID 0000.0001) // RANGE K (Lo:Hi:Step):(   1:   1:   1)
(PID.TID 0000.0001) // =======================================================
(PID.TID 0000.0001) K =   1
(PID.TID 0000.0001) //                I=7       I=17      I=27      I=37      I=47      I=57      I=67      I=77      I=87      I=97      I=107     I=117     I=127
(PID.TID 0000.0001) // |--J--|**0123456|890123456|890123456|890123456|890123456|890123456|890123456|890123456|890123456|890123456|890123456|890123456|890123456|8901
(PID.TID 0000.0001) //     26 --------------------------------------------------------------------------------------------------------------------------------------
(PID.TID 0000.0001) //     25 --------------------------------------------------------------------------------------------------------------------------------------
(PID.TID 0000.0001) //     24 --------------------------------------------------------------------------------------------------------------------------------------
(PID.TID 0000.0001) //     23 --------------------------------------------------------------------------------------------------------------------------------------
(PID.TID 0000.0001) //     22 --------------------------------------------------------------------------------------------------------------------------------------
(PID.TID 0000.0001) //     21 --------------------------------------------------------------------------------------------------------------------------------------
(PID.TID 0000.0001) //     20 --------------------------------------------------------------------------------------------------------------------------------------
(PID.TID 0000.0001) //     19 --------------------------------------------------------------------------------------------------------------------------------------
(PID.TID 0000.0001) //     18 --------------------------------------------------------------------------------------------------------------------------------------
(PID.TID 0000.0001) //     17 --------------------------------------------------------------------------------------------------------------------------------------
(PID.TID 0000.0001) //     16 --------------------------------------------------------------------------------------------------------------------------------------
(PID.TID 0000.0001) //     15 --------------------------------------------------------------------------------------------------------------------------------------
(PID.TID 0000.0001) //     14 --------------------------------------------------------------------------------------------------------------------------------------
(PID.TID 0000.0001) //     13 --------------------------------------------------------------------------------------------------------------------------------------
(PID.TID 0000.0001) //     12 --------------------------------------------------------------------------------------------------------------------------------------
(PID.TID 0000.0001) //     11 --------------------------------------------------------------------------------------------------------------------------------------
(PID.TID 0000.0001) //     10 --------------------------------------------------------------------------------------------------------------------------------------
(PID.TID 0000.0001) //      9 --------------------------------------------------------------------------------------------------------------------------------------
(PID.TID 0000.0001) //      8 --------------------------------------------------------------------------------------------------------------------------------------
(PID.TID 0000.0001) //      7 --------------------------------------------------------------------------------------------------------------------------------------
(PID.TID 0000.0001) //      6 --------------------------------------------------------------------------------------------------------------------------------------
(PID.TID 0000.0001) //      5 --------------------------------------------------------------------------------------------------------------------------------------
(PID.TID 0000.0001) //      4 --------------------------------------------------------------------------------------------------------------------------------------
(PID.TID 0000.0001) //      3 --------------------------------------------------------------------------------------------------------------------------------------
(PID.TID 0000.0001) //      2 --------------------------------------------------------------------------------------------------------------------------------------
(PID.TID 0000.0001) //      1 --------------------------------------------------------------------------------------------------------------------------------------
(PID.TID 0000.0001) //      0 --------------------------------------------------------------------------------------------------------------------------------------
(PID.TID 0000.0001) //     -1 --------------------------------------------------------------------------------------------------------------------------------------
(PID.TID 0000.0001) //     -2 --------------------------------------------------------------------------------------------------------------------------------------
(PID.TID 0000.0001) // =======================================================
(PID.TID 0000.0001) // END OF FIELD                                          =
(PID.TID 0000.0001) // =======================================================
(PID.TID 0000.0001) 
(PID.TID 0000.0001) // =======================================================
(PID.TID 0000.0001) // Field hFacS at iteration          1
(PID.TID 0000.0001) // CMIN =          1.000000000000000E+00
(PID.TID 0000.0001) // CMAX =          1.000000000000000E+00
(PID.TID 0000.0001) // CINT =          0.000000000000000E+00
(PID.TID 0000.0001) // SYMBOLS (CMIN->CMAX): -abcdefghijklmnopqrstuvwxyz+
(PID.TID 0000.0001) //                  0.0: .
(PID.TID 0000.0001) // RANGE I (Lo:Hi:Step):(  -2: 131:   1)
(PID.TID 0000.0001) // RANGE J (Lo:Hi:Step):(  26:  -2:  -1)
(PID.TID 0000.0001) // RANGE K (Lo:Hi:Step):(   1:   1:   1)
(PID.TID 0000.0001) // =======================================================
(PID.TID 0000.0001) K =   1
(PID.TID 0000.0001) //                I=7       I=17      I=27      I=37      I=47      I=57      I=67      I=77      I=87      I=97      I=107     I=117     I=127
(PID.TID 0000.0001) // |--J--|**0123456|890123456|890123456|890123456|890123456|890123456|890123456|890123456|890123456|890123456|890123456|890123456|890123456|8901
(PID.TID 0000.0001) //     26 --------------------------------------------------------------------------------------------------------------------------------------
(PID.TID 0000.0001) //     25 --------------------------------------------------------------------------------------------------------------------------------------
(PID.TID 0000.0001) //     24 ......................................................................................................................................
(PID.TID 0000.0001) //     23 --------------------------------------------------------------------------------------------------------------------------------------
(PID.TID 0000.0001) //     22 --------------------------------------------------------------------------------------------------------------------------------------
(PID.TID 0000.0001) //     21 --------------------------------------------------------------------------------------------------------------------------------------
(PID.TID 0000.0001) //     20 --------------------------------------------------------------------------------------------------------------------------------------
(PID.TID 0000.0001) //     19 --------------------------------------------------------------------------------------------------------------------------------------
(PID.TID 0000.0001) //     18 --------------------------------------------------------------------------------------------------------------------------------------
(PID.TID 0000.0001) //     17 --------------------------------------------------------------------------------------------------------------------------------------
(PID.TID 0000.0001) //     16 --------------------------------------------------------------------------------------------------------------------------------------
(PID.TID 0000.0001) //     15 --------------------------------------------------------------------------------------------------------------------------------------
(PID.TID 0000.0001) //     14 --------------------------------------------------------------------------------------------------------------------------------------
(PID.TID 0000.0001) //     13 --------------------------------------------------------------------------------------------------------------------------------------
(PID.TID 0000.0001) //     12 --------------------------------------------------------------------------------------------------------------------------------------
(PID.TID 0000.0001) //     11 --------------------------------------------------------------------------------------------------------------------------------------
(PID.TID 0000.0001) //     10 --------------------------------------------------------------------------------------------------------------------------------------
(PID.TID 0000.0001) //      9 --------------------------------------------------------------------------------------------------------------------------------------
(PID.TID 0000.0001) //      8 --------------------------------------------------------------------------------------------------------------------------------------
(PID.TID 0000.0001) //      7 --------------------------------------------------------------------------------------------------------------------------------------
(PID.TID 0000.0001) //      6 --------------------------------------------------------------------------------------------------------------------------------------
(PID.TID 0000.0001) //      5 --------------------------------------------------------------------------------------------------------------------------------------
(PID.TID 0000.0001) //      4 --------------------------------------------------------------------------------------------------------------------------------------
(PID.TID 0000.0001) //      3 --------------------------------------------------------------------------------------------------------------------------------------
(PID.TID 0000.0001) //      2 --------------------------------------------------------------------------------------------------------------------------------------
(PID.TID 0000.0001) //      1 ......................................................................................................................................
(PID.TID 0000.0001) //      0 --------------------------------------------------------------------------------------------------------------------------------------
(PID.TID 0000.0001) //     -1 --------------------------------------------------------------------------------------------------------------------------------------
(PID.TID 0000.0001) //     -2 --------------------------------------------------------------------------------------------------------------------------------------
(PID.TID 0000.0001) // =======================================================
(PID.TID 0000.0001) // END OF FIELD                                          =
(PID.TID 0000.0001) // =======================================================
(PID.TID 0000.0001) 
(PID.TID 0000.0001) %MON fCori_max                    =   7.4773213164249E-05
(PID.TID 0000.0001) %MON fCori_min                    =  -7.4773213164249E-05
(PID.TID 0000.0001) %MON fCori_mean                   =   6.3527471044073E-22
(PID.TID 0000.0001) %MON fCori_sd                     =   4.6907817211331E-05
(PID.TID 0000.0001) %MON fCoriG_max                   =   7.1689136096147E-05
(PID.TID 0000.0001) %MON fCoriG_min                   =  -7.7812249644691E-05
(PID.TID 0000.0001) %MON fCoriG_mean                  =  -3.3831412888996E-06
(PID.TID 0000.0001) %MON fCoriG_sd                    =   4.5863229796664E-05
(PID.TID 0000.0001)  PACKAGES_BOOT: opening data.pkg
(PID.TID 0000.0001)  OPEN_COPY_DATA_FILE: opening file data.pkg
(PID.TID 0000.0001) // =======================================================
(PID.TID 0000.0001) // Parameter file "data.pkg"
(PID.TID 0000.0001) // =======================================================
(PID.TID 0000.0001) ># Packages
(PID.TID 0000.0001) > &PACKAGES
(PID.TID 0000.0001) > useAIM=.TRUE.,
(PID.TID 0000.0001) > useSHAP_FILT=.TRUE.,
(PID.TID 0000.0001) > &
(PID.TID 0000.0001) 
(PID.TID 0000.0001)  PACKAGES_BOOT: finished reading data.pkg
(PID.TID 0000.0001)  SHAP_FILT_READPARMS: opening data.shap
(PID.TID 0000.0001)  OPEN_COPY_DATA_FILE: opening file data.shap
(PID.TID 0000.0001) // =======================================================
(PID.TID 0000.0001) // Parameter file "data.shap"
(PID.TID 0000.0001) // =======================================================
(PID.TID 0000.0001) ># Packages
(PID.TID 0000.0001) > &SHAP_PARM01
(PID.TID 0000.0001) > nShapT=4,
(PID.TID 0000.0001) > nShapUV=4,
(PID.TID 0000.0001) > Shap_funct=4,
(PID.TID 0000.0001) > &
(PID.TID 0000.0001) 
(PID.TID 0000.0001)  SHAP_FILT_READPARMS: finished reading data.shap
 Shap_funct, nShap_Tr,UV _Phys=           4           4           4           0
            0
 Shap_Trtau,Shap_uvtau=   600.0000000000000        600.0000000000000     
(PID.TID 0000.0001) // CG2D normalisation factor =          0.8577286100002721600000000E-05
(PID.TID 0000.0001) 
 ini_cg2d: sumArea,cg2dTolerance =  2.72797620993307E+14  3.89977207109950E-12
(PID.TID 0000.0001) // =======================================================
(PID.TID 0000.0001) // Model configuration
(PID.TID 0000.0001) // =======================================================
(PID.TID 0000.0001) //
(PID.TID 0000.0001) // "Physical" paramters ( PARM01 in namelist )
(PID.TID 0000.0001) //
(PID.TID 0000.0001) tRef =   /* Reference temperature profile ( oC or oK ) */
(PID.TID 0000.0001)                 2.810890000000000E+02,      /* K =  1 */
(PID.TID 0000.0001)                 2.893210000000000E+02,      /* K =  2 */
(PID.TID 0000.0001)                 3.071910000000000E+02,      /* K =  3 */
(PID.TID 0000.0001)                 3.313770000000000E+02,      /* K =  4 */
(PID.TID 0000.0001)                 4.324130000000000E+02       /* K =  5 */
(PID.TID 0000.0001)     ;
(PID.TID 0000.0001) sRef =   /* Reference salinity profile ( ppt ) */
(PID.TID 0000.0001)     5 @  0.000000000000000E+00              /* K =  1:  5 */
(PID.TID 0000.0001)     ;
(PID.TID 0000.0001) viscAh =   /* Lateral eddy viscosity ( m^2/s ) */
(PID.TID 0000.0001)                 0.000000000000000E+00
(PID.TID 0000.0001)     ;
(PID.TID 0000.0001) viscAh =   /* Lateral biharmonic viscosity ( m^4/s ) */
(PID.TID 0000.0001)                 0.000000000000000E+00
(PID.TID 0000.0001)     ;
(PID.TID 0000.0001) no_slip_sides =  /* Viscous BCs: No-slip sides */
(PID.TID 0000.0001)                   F
(PID.TID 0000.0001)     ;
(PID.TID 0000.0001) viscAr =   /* Vertical eddy viscosity ( units of r^2/s ) */
(PID.TID 0000.0001)                 1.000000000000000E+03
(PID.TID 0000.0001)     ;
(PID.TID 0000.0001) diffKhT =   /* Laplacian diffusion of heat laterally ( m^2/s ) */
(PID.TID 0000.0001)                 0.000000000000000E+00
(PID.TID 0000.0001)     ;
(PID.TID 0000.0001) diffK4T =   /* Bihaarmonic diffusion of heat laterally ( m^4/s ) */
(PID.TID 0000.0001)                 0.000000000000000E+00
(PID.TID 0000.0001)     ;
(PID.TID 0000.0001) diffKzT =   /* Laplacian diffusion of heat vertically ( m^2/s ) */
(PID.TID 0000.0001)                 1.234567000000000E+05
(PID.TID 0000.0001)     ;
(PID.TID 0000.0001) diffKrT =   /* Laplacian diffusion of heat vertically ( m^2/s ) */
(PID.TID 0000.0001)                 0.000000000000000E+00
(PID.TID 0000.0001)     ;
(PID.TID 0000.0001) diffKhS =   /* Laplacian diffusion of salt laterally ( m^2/s ) */
(PID.TID 0000.0001)                 0.000000000000000E+00
(PID.TID 0000.0001)     ;
(PID.TID 0000.0001) diffK4S =   /* Bihaarmonic diffusion of salt laterally ( m^4/s ) */
(PID.TID 0000.0001)                 0.000000000000000E+00
(PID.TID 0000.0001)     ;
(PID.TID 0000.0001) diffKzS =   /* Laplacian diffusion of salt vertically ( m^2/s ) */
(PID.TID 0000.0001)                 1.234567000000000E+05
(PID.TID 0000.0001)     ;
(PID.TID 0000.0001) diffKrS =   /* Laplacian diffusion of salt vertically ( m^2/s ) */
(PID.TID 0000.0001)                 0.000000000000000E+00
(PID.TID 0000.0001)     ;
(PID.TID 0000.0001) tAlpha =   /* Linear EOS thermal expansion coefficient ( 1/degree ) */
(PID.TID 0000.0001)                 2.000000000000000E-04
(PID.TID 0000.0001)     ;
(PID.TID 0000.0001) sBeta =   /* Linear EOS haline contraction coefficient ( 1/ppt ) */
(PID.TID 0000.0001)                 7.400000000000001E-04
(PID.TID 0000.0001)     ;
(PID.TID 0000.0001) rhonil =   /* Reference density ( kg/m^3 ) */
(PID.TID 0000.0001)                 1.000000000000000E+00
(PID.TID 0000.0001)     ;
(PID.TID 0000.0001) rhoConst =   /* Reference density ( kg/m^3 ) */
(PID.TID 0000.0001)                 1.000000000000000E+00
(PID.TID 0000.0001)     ;
(PID.TID 0000.0001) gravity =   /* Gravitational acceleration ( m/s^2 ) */
(PID.TID 0000.0001)                 9.810000000000001E+00
(PID.TID 0000.0001)     ;
(PID.TID 0000.0001) gBaro =   /* Barotropic gravity ( m/s^2 ) */
(PID.TID 0000.0001)                 9.810000000000001E+00
(PID.TID 0000.0001)     ;
(PID.TID 0000.0001) f0 =   /* Reference coriolis parameter ( 1/s ) */
(PID.TID 0000.0001)                 1.000000000000000E-04
(PID.TID 0000.0001)     ;
(PID.TID 0000.0001) beta =   /* Beta ( 1/(m.s) ) */
(PID.TID 0000.0001)                 9.999999999999998E-12
(PID.TID 0000.0001)     ;
(PID.TID 0000.0001) freeSurfFac =   /* Implicit free surface factor */
(PID.TID 0000.0001)                 1.000000000000000E+00
(PID.TID 0000.0001)     ;
(PID.TID 0000.0001) implicitFreeSurface =   /* Implicit free surface on/off flag */
(PID.TID 0000.0001)                   T
(PID.TID 0000.0001)     ;
(PID.TID 0000.0001) rigidLid =   /* Rigid lid on/off flag */
(PID.TID 0000.0001)                   F
(PID.TID 0000.0001)     ;
(PID.TID 0000.0001) implicSurfPress =   /* Surface Pressure implicit factor (0-1)*/
(PID.TID 0000.0001)                 1.000000000000000E+00
(PID.TID 0000.0001)     ;
(PID.TID 0000.0001) implicDiv2Dflow =   /* Barot. Flow Div. implicit factor (0-1)*/
(PID.TID 0000.0001)                 1.000000000000000E+00
(PID.TID 0000.0001)     ;
(PID.TID 0000.0001) staggerTimeStep =   /* Stagger time stepping on/off flag */
(PID.TID 0000.0001)                   T
(PID.TID 0000.0001)     ;
(PID.TID 0000.0001) momStepping =  /* Momentum equation on/off flag */
(PID.TID 0000.0001)                   T
(PID.TID 0000.0001)     ;
(PID.TID 0000.0001) momAdvection =  /* Momentum advection on/off flag */
(PID.TID 0000.0001)                   T
(PID.TID 0000.0001)     ;
(PID.TID 0000.0001) momViscosity =  /* Momentum viscosity on/off flag */
(PID.TID 0000.0001)                   T
(PID.TID 0000.0001)     ;
(PID.TID 0000.0001) useCoriolis =  /* Coriolis on/off flag */
(PID.TID 0000.0001)                   T
(PID.TID 0000.0001)     ;
(PID.TID 0000.0001) momForcing =  /* Momentum forcing on/off flag */
(PID.TID 0000.0001)                   T
(PID.TID 0000.0001)     ;
(PID.TID 0000.0001) momPressureForcing =  /* Momentum pressure term on/off flag */
(PID.TID 0000.0001)                   T
(PID.TID 0000.0001)     ;
(PID.TID 0000.0001) tempStepping =  /* Temperature equation on/off flag */
(PID.TID 0000.0001)                   T
(PID.TID 0000.0001)     ;
(PID.TID 0000.0001) nonHydrostatic =  /* Non-Hydrostatic on/off flag */
(PID.TID 0000.0001)                   F
(PID.TID 0000.0001)     ;
(PID.TID 0000.0001) //
(PID.TID 0000.0001) // Elliptic solver(s) paramters ( PARM02 in namelist )
(PID.TID 0000.0001) //
(PID.TID 0000.0001) cg2dMaxIters =   /* Upper limit on 2d con. grad iterations  */
(PID.TID 0000.0001)                     200
(PID.TID 0000.0001)     ;
(PID.TID 0000.0001) cg2dChkResFreq =   /* 2d con. grad convergence test frequency */
(PID.TID 0000.0001)                       1
(PID.TID 0000.0001)     ;
(PID.TID 0000.0001) cg2dTargetResidual =   /* 2d con. grad target residual  */
(PID.TID 0000.0001)                 1.000000000000000E-07
(PID.TID 0000.0001)     ;
(PID.TID 0000.0001) //
(PID.TID 0000.0001) // Time stepping paramters ( PARM03 in namelist )
(PID.TID 0000.0001) //
(PID.TID 0000.0001) nIter0 =   /* Base timestep number  */
(PID.TID 0000.0001)                    8640
(PID.TID 0000.0001)     ;
(PID.TID 0000.0001) nTimeSteps =   /* Number of timesteps */
(PID.TID 0000.0001)                      10
(PID.TID 0000.0001)     ;
(PID.TID 0000.0001) deltatTmom =   /* Momentum equation timestep ( s ) */
(PID.TID 0000.0001)                 6.000000000000000E+02
(PID.TID 0000.0001)     ;
(PID.TID 0000.0001) deltatTtracer =   /* Tracer equation timestep ( s ) */
(PID.TID 0000.0001)                 6.000000000000000E+02
(PID.TID 0000.0001)     ;
(PID.TID 0000.0001) deltatTClock  =   /* Model clock timestep ( s ) */
(PID.TID 0000.0001)                 6.000000000000000E+02
(PID.TID 0000.0001)     ;
(PID.TID 0000.0001) cAdjFreq =   /* Convective adjustment interval ( s ) */
(PID.TID 0000.0001)                 0.000000000000000E+00
(PID.TID 0000.0001)     ;
(PID.TID 0000.0001) abeps =   /* Adams-Bashforth stabilizing weight */
(PID.TID 0000.0001)                 1.000000000000000E-01
(PID.TID 0000.0001)     ;
(PID.TID 0000.0001) tauCD =   /* CD coupling time-scale ( s ) */
(PID.TID 0000.0001)                 6.000000000000000E+02
(PID.TID 0000.0001)     ;
(PID.TID 0000.0001) rCD =   /* Normalised CD coupling parameter */
(PID.TID 0000.0001)                 0.000000000000000E+00
(PID.TID 0000.0001)     ;
(PID.TID 0000.0001) startTime =   /* Run start time ( s ). */
(PID.TID 0000.0001)                 5.184000000000000E+06
(PID.TID 0000.0001)     ;
(PID.TID 0000.0001) endTime =   /* Integration ending time ( s ). */
(PID.TID 0000.0001)                 5.190000000000000E+06
(PID.TID 0000.0001)     ;
(PID.TID 0000.0001) pChkPtFreq =   /* Permanent restart/checkpoint file interval ( s ). */
(PID.TID 0000.0001)                 2.592000000000000E+06
(PID.TID 0000.0001)     ;
(PID.TID 0000.0001) chkPtFreq =   /* Rolling restart/checkpoint file interval ( s ). */
(PID.TID 0000.0001)                 0.000000000000000E+00
(PID.TID 0000.0001)     ;
(PID.TID 0000.0001) dumpFreq =   /* Model state write out interval ( s ). */
(PID.TID 0000.0001)                 2.592000000000000E+06
(PID.TID 0000.0001)     ;
(PID.TID 0000.0001) //
(PID.TID 0000.0001) // Gridding paramters ( PARM04 in namelist )
(PID.TID 0000.0001) //
(PID.TID 0000.0001) usingCartesianGrid =   /* Cartesian coordinates flag ( True / False ) */
(PID.TID 0000.0001)                   F
(PID.TID 0000.0001)     ;
(PID.TID 0000.0001) usingSphericalPolarGrid =   /* Spherical coordinates flag ( True / False ) */
(PID.TID 0000.0001)                   T
(PID.TID 0000.0001)     ;
(PID.TID 0000.0001) groundAtK1 =   /* Lower Boundary (ground) at the surface(k=1) ( T / F ) */
(PID.TID 0000.0001)                   T
(PID.TID 0000.0001)     ;
(PID.TID 0000.0001) Ro_SeaLevel =   /* r(1) ( units of r ) */
(PID.TID 0000.0001)                 1.000000000000000E+05
(PID.TID 0000.0001)     ;
(PID.TID 0000.0001) rkFac =   /* minus Vertical index orientation  */
(PID.TID 0000.0001)                 1.000000000000000E+00
(PID.TID 0000.0001)     ;
(PID.TID 0000.0001) horiVertRatio =   /* Ratio on units : Horiz - Vertical */
(PID.TID 0000.0001)                 9.810000000000001E+00
(PID.TID 0000.0001)     ;
(PID.TID 0000.0001) delZ =   /* W spacing ( m ) */
(PID.TID 0000.0001)     5 @  1.234567000000000E+05              /* K =  1:  5 */
(PID.TID 0000.0001)     ;
(PID.TID 0000.0001) delP =   /* W spacing ( Pa ) */
(PID.TID 0000.0001)     5 @  1.234567000000000E+05              /* K =  1:  5 */
(PID.TID 0000.0001)     ;
(PID.TID 0000.0001) delR =   /* W spacing ( units of r ) */
(PID.TID 0000.0001)                 1.000000000000000E+04,      /* K =  1 */
(PID.TID 0000.0001)                 2.500000000000000E+04,      /* K =  2 */
(PID.TID 0000.0001)                 3.000000000000000E+04,      /* K =  3 */
(PID.TID 0000.0001)                 2.000000000000000E+04,      /* K =  4 */
(PID.TID 0000.0001)                 1.500000000000000E+04       /* K =  5 */
(PID.TID 0000.0001)     ;
(PID.TID 0000.0001) delX =   /* U spacing ( m - cartesian, degrees - spherical ) */
(PID.TID 0000.0001)   128 @  2.812500000000000E+00              /* I =  1:128 */
(PID.TID 0000.0001)     ;
(PID.TID 0000.0001) delY =   /* V spacing ( m - cartesian, degrees - spherical ) */
(PID.TID 0000.0001)    23 @  2.812500000000000E+00              /* J =  1: 23 */
(PID.TID 0000.0001)     ;
(PID.TID 0000.0001) phiMin =    /* South edge (ignored - cartesian, degrees - spherical ) */
(PID.TID 0000.0001)                -3.234375000000000E+01
(PID.TID 0000.0001)     ;
(PID.TID 0000.0001) thetaMin =    /* West edge ( ignored - cartesian, degrees - spherical ) */
(PID.TID 0000.0001)                 0.000000000000000E+00
(PID.TID 0000.0001)     ;
(PID.TID 0000.0001) rSphere =    /* Radius ( ignored - cartesian, m - spherical ) */
(PID.TID 0000.0001)                 6.370000000000000E+06
(PID.TID 0000.0001)     ;
(PID.TID 0000.0001) xcoord =   /* P-point X coord ( m - cartesian, degrees - spherical ) */
(PID.TID 0000.0001)                 1.406250000000000E+00,      /* I =  1 */
(PID.TID 0000.0001)                 4.218750000000000E+00,      /* I =  2 */
(PID.TID 0000.0001)                 7.031250000000000E+00,      /* I =  3 */
(PID.TID 0000.0001)                 9.843750000000000E+00,      /* I =  4 */
(PID.TID 0000.0001)                 1.265625000000000E+01,      /* I =  5 */
(PID.TID 0000.0001)                 1.546875000000000E+01,      /* I =  6 */
(PID.TID 0000.0001)                 1.828125000000000E+01,      /* I =  7 */
(PID.TID 0000.0001)                 2.109375000000000E+01,      /* I =  8 */
(PID.TID 0000.0001)                 2.390625000000000E+01,      /* I =  9 */
(PID.TID 0000.0001)                 2.671875000000000E+01,      /* I = 10 */
(PID.TID 0000.0001)                 2.953125000000000E+01,      /* I = 11 */
(PID.TID 0000.0001)                 3.234375000000000E+01,      /* I = 12 */
(PID.TID 0000.0001)                 3.515625000000000E+01,      /* I = 13 */
(PID.TID 0000.0001)                 3.796875000000000E+01,      /* I = 14 */
(PID.TID 0000.0001)                 4.078125000000000E+01,      /* I = 15 */
(PID.TID 0000.0001)                 4.359375000000000E+01,      /* I = 16 */
(PID.TID 0000.0001)                 4.640625000000000E+01,      /* I = 17 */
(PID.TID 0000.0001)                 4.921875000000000E+01,      /* I = 18 */
(PID.TID 0000.0001)                 5.203125000000000E+01,      /* I = 19 */
(PID.TID 0000.0001)                 5.484375000000000E+01,      /* I = 20 */
(PID.TID 0000.0001)                 5.765625000000000E+01,      /* I = 21 */
(PID.TID 0000.0001)                 6.046875000000000E+01,      /* I = 22 */
(PID.TID 0000.0001)                 6.328125000000000E+01,      /* I = 23 */
(PID.TID 0000.0001)                 6.609375000000000E+01,      /* I = 24 */
(PID.TID 0000.0001)                 6.890625000000000E+01,      /* I = 25 */
(PID.TID 0000.0001)                 7.171875000000000E+01,      /* I = 26 */
(PID.TID 0000.0001)                 7.453125000000000E+01,      /* I = 27 */
(PID.TID 0000.0001)                 7.734375000000000E+01,      /* I = 28 */
(PID.TID 0000.0001)                 8.015625000000000E+01,      /* I = 29 */
(PID.TID 0000.0001)                 8.296875000000000E+01,      /* I = 30 */
(PID.TID 0000.0001)                 8.578125000000000E+01,      /* I = 31 */
(PID.TID 0000.0001)                 8.859375000000000E+01,      /* I = 32 */
(PID.TID 0000.0001)                 9.140625000000000E+01,      /* I = 33 */
(PID.TID 0000.0001)                 9.421875000000000E+01,      /* I = 34 */
(PID.TID 0000.0001)                 9.703125000000000E+01,      /* I = 35 */
(PID.TID 0000.0001)                 9.984375000000000E+01,      /* I = 36 */
(PID.TID 0000.0001)                 1.026562500000000E+02,      /* I = 37 */
(PID.TID 0000.0001)                 1.054687500000000E+02,      /* I = 38 */
(PID.TID 0000.0001)                 1.082812500000000E+02,      /* I = 39 */
(PID.TID 0000.0001)                 1.110937500000000E+02,      /* I = 40 */
(PID.TID 0000.0001)                 1.139062500000000E+02,      /* I = 41 */
(PID.TID 0000.0001)                 1.167187500000000E+02,      /* I = 42 */
(PID.TID 0000.0001)                 1.195312500000000E+02,      /* I = 43 */
(PID.TID 0000.0001)                 1.223437500000000E+02,      /* I = 44 */
(PID.TID 0000.0001)                 1.251562500000000E+02,      /* I = 45 */
(PID.TID 0000.0001)                 1.279687500000000E+02,      /* I = 46 */
(PID.TID 0000.0001)                 1.307812500000000E+02,      /* I = 47 */
(PID.TID 0000.0001)                 1.335937500000000E+02,      /* I = 48 */
(PID.TID 0000.0001)                 1.364062500000000E+02,      /* I = 49 */
(PID.TID 0000.0001)                 1.392187500000000E+02,      /* I = 50 */
(PID.TID 0000.0001)                 1.420312500000000E+02,      /* I = 51 */
(PID.TID 0000.0001)                 1.448437500000000E+02,      /* I = 52 */
(PID.TID 0000.0001)                 1.476562500000000E+02,      /* I = 53 */
(PID.TID 0000.0001)                 1.504687500000000E+02,      /* I = 54 */
(PID.TID 0000.0001)                 1.532812500000000E+02,      /* I = 55 */
(PID.TID 0000.0001)                 1.560937500000000E+02,      /* I = 56 */
(PID.TID 0000.0001)                 1.589062500000000E+02,      /* I = 57 */
(PID.TID 0000.0001)                 1.617187500000000E+02,      /* I = 58 */
(PID.TID 0000.0001)                 1.645312500000000E+02,      /* I = 59 */
(PID.TID 0000.0001)                 1.673437500000000E+02,      /* I = 60 */
(PID.TID 0000.0001)                 1.701562500000000E+02,      /* I = 61 */
(PID.TID 0000.0001)                 1.729687500000000E+02,      /* I = 62 */
(PID.TID 0000.0001)                 1.757812500000000E+02,      /* I = 63 */
(PID.TID 0000.0001)                 1.785937500000000E+02,      /* I = 64 */
(PID.TID 0000.0001)                 1.814062500000000E+02,      /* I = 65 */
(PID.TID 0000.0001)                 1.842187500000000E+02,      /* I = 66 */
(PID.TID 0000.0001)                 1.870312500000000E+02,      /* I = 67 */
(PID.TID 0000.0001)                 1.898437500000000E+02,      /* I = 68 */
(PID.TID 0000.0001)                 1.926562500000000E+02,      /* I = 69 */
(PID.TID 0000.0001)                 1.954687500000000E+02,      /* I = 70 */
(PID.TID 0000.0001)                 1.982812500000000E+02,      /* I = 71 */
(PID.TID 0000.0001)                 2.010937500000000E+02,      /* I = 72 */
(PID.TID 0000.0001)                 2.039062500000000E+02,      /* I = 73 */
(PID.TID 0000.0001)                 2.067187500000000E+02,      /* I = 74 */
(PID.TID 0000.0001)                 2.095312500000000E+02,      /* I = 75 */
(PID.TID 0000.0001)                 2.123437500000000E+02,      /* I = 76 */
(PID.TID 0000.0001)                 2.151562500000000E+02,      /* I = 77 */
(PID.TID 0000.0001)                 2.179687500000000E+02,      /* I = 78 */
(PID.TID 0000.0001)                 2.207812500000000E+02,      /* I = 79 */
(PID.TID 0000.0001)                 2.235937500000000E+02,      /* I = 80 */
(PID.TID 0000.0001)                 2.264062500000000E+02,      /* I = 81 */
(PID.TID 0000.0001)                 2.292187500000000E+02,      /* I = 82 */
(PID.TID 0000.0001)                 2.320312500000000E+02,      /* I = 83 */
(PID.TID 0000.0001)                 2.348437500000000E+02,      /* I = 84 */
(PID.TID 0000.0001)                 2.376562500000000E+02,      /* I = 85 */
(PID.TID 0000.0001)                 2.404687500000000E+02,      /* I = 86 */
(PID.TID 0000.0001)                 2.432812500000000E+02,      /* I = 87 */
(PID.TID 0000.0001)                 2.460937500000000E+02,      /* I = 88 */
(PID.TID 0000.0001)                 2.489062500000000E+02,      /* I = 89 */
(PID.TID 0000.0001)                 2.517187500000000E+02,      /* I = 90 */
(PID.TID 0000.0001)                 2.545312500000000E+02,      /* I = 91 */
(PID.TID 0000.0001)                 2.573437500000000E+02,      /* I = 92 */
(PID.TID 0000.0001)                 2.601562500000000E+02,      /* I = 93 */
(PID.TID 0000.0001)                 2.629687500000000E+02,      /* I = 94 */
(PID.TID 0000.0001)                 2.657812500000000E+02,      /* I = 95 */
(PID.TID 0000.0001)                 2.685937500000000E+02,      /* I = 96 */
(PID.TID 0000.0001)                 2.714062500000000E+02,      /* I = 97 */
(PID.TID 0000.0001)                 2.742187500000000E+02,      /* I = 98 */
(PID.TID 0000.0001)                 2.770312500000000E+02,      /* I = 99 */
(PID.TID 0000.0001)                 2.798437500000000E+02,      /* I =100 */
(PID.TID 0000.0001)                 2.826562500000000E+02,      /* I =101 */
(PID.TID 0000.0001)                 2.854687500000000E+02,      /* I =102 */
(PID.TID 0000.0001)                 2.882812500000000E+02,      /* I =103 */
(PID.TID 0000.0001)                 2.910937500000000E+02,      /* I =104 */
(PID.TID 0000.0001)                 2.939062500000000E+02,      /* I =105 */
(PID.TID 0000.0001)                 2.967187500000000E+02,      /* I =106 */
(PID.TID 0000.0001)                 2.995312500000000E+02,      /* I =107 */
(PID.TID 0000.0001)                 3.023437500000000E+02,      /* I =108 */
(PID.TID 0000.0001)                 3.051562500000000E+02,      /* I =109 */
(PID.TID 0000.0001)                 3.079687500000000E+02,      /* I =110 */
(PID.TID 0000.0001)                 3.107812500000000E+02,      /* I =111 */
(PID.TID 0000.0001)                 3.135937500000000E+02,      /* I =112 */
(PID.TID 0000.0001)                 3.164062500000000E+02,      /* I =113 */
(PID.TID 0000.0001)                 3.192187500000000E+02,      /* I =114 */
(PID.TID 0000.0001)                 3.220312500000000E+02,      /* I =115 */
(PID.TID 0000.0001)                 3.248437500000000E+02,      /* I =116 */
(PID.TID 0000.0001)                 3.276562500000000E+02,      /* I =117 */
(PID.TID 0000.0001)                 3.304687500000000E+02,      /* I =118 */
(PID.TID 0000.0001)                 3.332812500000000E+02,      /* I =119 */
(PID.TID 0000.0001)                 3.360937500000000E+02,      /* I =120 */
(PID.TID 0000.0001)                 3.389062500000000E+02,      /* I =121 */
(PID.TID 0000.0001)                 3.417187500000000E+02,      /* I =122 */
(PID.TID 0000.0001)                 3.445312500000000E+02,      /* I =123 */
(PID.TID 0000.0001)                 3.473437500000000E+02,      /* I =124 */
(PID.TID 0000.0001)                 3.501562500000000E+02,      /* I =125 */
(PID.TID 0000.0001)                 3.529687500000000E+02,      /* I =126 */
(PID.TID 0000.0001)                 3.557812500000000E+02,      /* I =127 */
(PID.TID 0000.0001)                 3.585937500000000E+02       /* I =128 */
(PID.TID 0000.0001)     ;
(PID.TID 0000.0001) ycoord =   /* P-point Y coord ( m - cartesian, degrees - spherical ) */
(PID.TID 0000.0001)                -3.093750000000000E+01,      /* J =  1 */
(PID.TID 0000.0001)                -2.812500000000000E+01,      /* J =  2 */
(PID.TID 0000.0001)                -2.531250000000000E+01,      /* J =  3 */
(PID.TID 0000.0001)                -2.250000000000000E+01,      /* J =  4 */
(PID.TID 0000.0001)                -1.968750000000000E+01,      /* J =  5 */
(PID.TID 0000.0001)                -1.687500000000000E+01,      /* J =  6 */
(PID.TID 0000.0001)                -1.406250000000000E+01,      /* J =  7 */
(PID.TID 0000.0001)                -1.125000000000000E+01,      /* J =  8 */
(PID.TID 0000.0001)                -8.437500000000000E+00,      /* J =  9 */
(PID.TID 0000.0001)                -5.625000000000000E+00,      /* J = 10 */
(PID.TID 0000.0001)                -2.812500000000000E+00,      /* J = 11 */
(PID.TID 0000.0001)                 0.000000000000000E+00,      /* J = 12 */
(PID.TID 0000.0001)                 2.812500000000000E+00,      /* J = 13 */
(PID.TID 0000.0001)                 5.625000000000000E+00,      /* J = 14 */
(PID.TID 0000.0001)                 8.437500000000000E+00,      /* J = 15 */
(PID.TID 0000.0001)                 1.125000000000000E+01,      /* J = 16 */
(PID.TID 0000.0001)                 1.406250000000000E+01,      /* J = 17 */
(PID.TID 0000.0001)                 1.687500000000000E+01,      /* J = 18 */
(PID.TID 0000.0001)                 1.968750000000000E+01,      /* J = 19 */
(PID.TID 0000.0001)                 2.250000000000000E+01,      /* J = 20 */
(PID.TID 0000.0001)                 2.531250000000000E+01,      /* J = 21 */
(PID.TID 0000.0001)                 2.812500000000000E+01,      /* J = 22 */
(PID.TID 0000.0001)                 3.093750000000000E+01       /* J = 23 */
(PID.TID 0000.0001)     ;
(PID.TID 0000.0001) rcoord =   /* P-point R coordinate (  units of r ) */
(PID.TID 0000.0001)                 9.500000000000000E+04,      /* K =  1 */
(PID.TID 0000.0001)                 7.750000000000000E+04,      /* K =  2 */
(PID.TID 0000.0001)                 5.000000000000000E+04,      /* K =  3 */
(PID.TID 0000.0001)                 2.500000000000000E+04,      /* K =  4 */
(PID.TID 0000.0001)                 7.500000000000000E+03       /* K =  5 */
(PID.TID 0000.0001)     ;
(PID.TID 0000.0001) dxF =  /* dxF(:,1,:,1) ( m - cartesian, degrees - spherical ) */
(PID.TID 0000.0001)   128 @  2.682002803544621E+05              /* I =  1:128 */
(PID.TID 0000.0001)     ;
(PID.TID 0000.0001) dxF =  /* dxF(1,:,1,:) ( m - cartesian, degrees - spherical ) */
(PID.TID 0000.0001)                 2.682002803544621E+05,      /* J =  1 */
(PID.TID 0000.0001)                 2.757650002472408E+05,      /* J =  2 */
(PID.TID 0000.0001)                 2.826653781002625E+05,      /* J =  3 */
(PID.TID 0000.0001)                 2.888847902988778E+05,      /* J =  4 */
(PID.TID 0000.0001)                 2.944082537343438E+05,      /* J =  5 */
(PID.TID 0000.0001)                 2.992224618994463E+05,      /* J =  6 */
(PID.TID 0000.0001)                 3.033158169450409E+05,      /* J =  7 */
(PID.TID 0000.0001)                 3.066784576202870E+05,      /* J =  8 */
(PID.TID 0000.0001)                 3.093022830292655E+05,      /* J =  9 */
(PID.TID 0000.0001)                 3.111809721467461E+05,      /* J = 10 */
(PID.TID 0000.0001)                 3.123099990460912E+05,      /* J = 11 */
(PID.TID 0000.0001)                 3.126866438026091E+05,      /* J = 12 */
(PID.TID 0000.0001)                 3.123099990460912E+05,      /* J = 13 */
(PID.TID 0000.0001)                 3.111809721467461E+05,      /* J = 14 */
(PID.TID 0000.0001)                 3.093022830292655E+05,      /* J = 15 */
(PID.TID 0000.0001)                 3.066784576202870E+05,      /* J = 16 */
(PID.TID 0000.0001)                 3.033158169450409E+05,      /* J = 17 */
(PID.TID 0000.0001)                 2.992224618994463E+05,      /* J = 18 */
(PID.TID 0000.0001)                 2.944082537343438E+05,      /* J = 19 */
(PID.TID 0000.0001)                 2.888847902988778E+05,      /* J = 20 */
(PID.TID 0000.0001)                 2.826653781002625E+05,      /* J = 21 */
(PID.TID 0000.0001)                 2.757650002472408E+05,      /* J = 22 */
(PID.TID 0000.0001)                 2.682002803544621E+05       /* J = 23 */
(PID.TID 0000.0001)     ;
(PID.TID 0000.0001) dyF =  /* dyF(:,1,:,1) ( m - cartesian, degrees - spherical ) */
(PID.TID 0000.0001)   128 @  3.126866438026091E+05              /* I =  1:128 */
(PID.TID 0000.0001)     ;
(PID.TID 0000.0001) dyF =  /* dyF(1,:,1,:) ( m - cartesian, degrees - spherical ) */
(PID.TID 0000.0001)    23 @  3.126866438026091E+05              /* J =  1: 23 */
(PID.TID 0000.0001)     ;
(PID.TID 0000.0001) dxG =  /* dxG(:,1,:,1) ( m - cartesian, degrees - spherical ) */
(PID.TID 0000.0001)   128 @  2.641744258225996E+05              /* I =  1:128 */
(PID.TID 0000.0001)     ;
(PID.TID 0000.0001) dxG =  /* dxG(1,:,1,:) ( m - cartesian, degrees - spherical ) */
(PID.TID 0000.0001)                 2.641744258225996E+05,      /* J =  1 */
(PID.TID 0000.0001)                 2.720645810660936E+05,      /* J =  2 */
(PID.TID 0000.0001)                 2.792993089037566E+05,      /* J =  3 */
(PID.TID 0000.0001)                 2.858611802425402E+05,      /* J =  4 */
(PID.TID 0000.0001)                 2.917343869596373E+05,      /* J =  5 */
(PID.TID 0000.0001)                 2.969047799856344E+05,      /* J =  6 */
(PID.TID 0000.0001)                 3.013599033908587E+05,      /* J =  7 */
(PID.TID 0000.0001)                 3.050890243928044E+05,      /* J =  8 */
(PID.TID 0000.0001)                 3.080831592123453E+05,      /* J =  9 */
(PID.TID 0000.0001)                 3.103350947164461E+05,      /* J = 10 */
(PID.TID 0000.0001)                 3.118394057952310E+05,      /* J = 11 */
(PID.TID 0000.0001)     2 @  3.125924684315491E+05,             /* J = 12: 13 */
(PID.TID 0000.0001)                 3.118394057952310E+05,      /* J = 14 */
(PID.TID 0000.0001)                 3.103350947164461E+05,      /* J = 15 */
(PID.TID 0000.0001)                 3.080831592123453E+05,      /* J = 16 */
(PID.TID 0000.0001)                 3.050890243928044E+05,      /* J = 17 */
(PID.TID 0000.0001)                 3.013599033908587E+05,      /* J = 18 */
(PID.TID 0000.0001)                 2.969047799856344E+05,      /* J = 19 */
(PID.TID 0000.0001)                 2.917343869596373E+05,      /* J = 20 */
(PID.TID 0000.0001)                 2.858611802425402E+05,      /* J = 21 */
(PID.TID 0000.0001)                 2.792993089037566E+05,      /* J = 22 */
(PID.TID 0000.0001)                 2.720645810660936E+05       /* J = 23 */
(PID.TID 0000.0001)     ;
(PID.TID 0000.0001) dyG =  /* dyG(:,1,:,1) ( m - cartesian, degrees - spherical ) */
(PID.TID 0000.0001)   128 @  3.126866438026091E+05              /* I =  1:128 */
(PID.TID 0000.0001)     ;
(PID.TID 0000.0001) dyG =  /* dyG(1,:,1,:) ( m - cartesian, degrees - spherical ) */
(PID.TID 0000.0001)    23 @  3.126866438026091E+05              /* J =  1: 23 */
(PID.TID 0000.0001)     ;
(PID.TID 0000.0001) dxC =  /* dxC(:,1,:,1) ( m - cartesian, degrees - spherical ) */
(PID.TID 0000.0001)   128 @  2.682002803544621E+05              /* I =  1:128 */
(PID.TID 0000.0001)     ;
(PID.TID 0000.0001) dxC =  /* dxC(1,:,1,:) ( m - cartesian, degrees - spherical ) */
(PID.TID 0000.0001)                 2.682002803544621E+05,      /* J =  1 */
(PID.TID 0000.0001)                 2.757650002472408E+05,      /* J =  2 */
(PID.TID 0000.0001)                 2.826653781002625E+05,      /* J =  3 */
(PID.TID 0000.0001)                 2.888847902988778E+05,      /* J =  4 */
(PID.TID 0000.0001)                 2.944082537343438E+05,      /* J =  5 */
(PID.TID 0000.0001)                 2.992224618994463E+05,      /* J =  6 */
(PID.TID 0000.0001)                 3.033158169450409E+05,      /* J =  7 */
(PID.TID 0000.0001)                 3.066784576202870E+05,      /* J =  8 */
(PID.TID 0000.0001)                 3.093022830292655E+05,      /* J =  9 */
(PID.TID 0000.0001)                 3.111809721467461E+05,      /* J = 10 */
(PID.TID 0000.0001)                 3.123099990460912E+05,      /* J = 11 */
(PID.TID 0000.0001)                 3.126866438026091E+05,      /* J = 12 */
(PID.TID 0000.0001)                 3.123099990460912E+05,      /* J = 13 */
(PID.TID 0000.0001)                 3.111809721467461E+05,      /* J = 14 */
(PID.TID 0000.0001)                 3.093022830292655E+05,      /* J = 15 */
(PID.TID 0000.0001)                 3.066784576202870E+05,      /* J = 16 */
(PID.TID 0000.0001)                 3.033158169450409E+05,      /* J = 17 */
(PID.TID 0000.0001)                 2.992224618994463E+05,      /* J = 18 */
(PID.TID 0000.0001)                 2.944082537343438E+05,      /* J = 19 */
(PID.TID 0000.0001)                 2.888847902988778E+05,      /* J = 20 */
(PID.TID 0000.0001)                 2.826653781002625E+05,      /* J = 21 */
(PID.TID 0000.0001)                 2.757650002472408E+05,      /* J = 22 */
(PID.TID 0000.0001)                 2.682002803544621E+05       /* J = 23 */
(PID.TID 0000.0001)     ;
(PID.TID 0000.0001) dyC =  /* dyC(:,1,:,1) ( m - cartesian, degrees - spherical ) */
(PID.TID 0000.0001)   128 @  3.126866438026091E+05              /* I =  1:128 */
(PID.TID 0000.0001)     ;
(PID.TID 0000.0001) dyC =  /* dyC(1,:,1,:) ( m - cartesian, degrees - spherical ) */
(PID.TID 0000.0001)    23 @  3.126866438026091E+05              /* J =  1: 23 */
(PID.TID 0000.0001)     ;
(PID.TID 0000.0001) dxV =  /* dxV(:,1,:,1) ( m - cartesian, degrees - spherical ) */
(PID.TID 0000.0001)   128 @  2.641744258225996E+05              /* I =  1:128 */
(PID.TID 0000.0001)     ;
(PID.TID 0000.0001) dxV =  /* dxV(1,:,1,:) ( m - cartesian, degrees - spherical ) */
(PID.TID 0000.0001)                 2.641744258225996E+05,      /* J =  1 */
(PID.TID 0000.0001)                 2.720645810660936E+05,      /* J =  2 */
(PID.TID 0000.0001)                 2.792993089037566E+05,      /* J =  3 */
(PID.TID 0000.0001)                 2.858611802425402E+05,      /* J =  4 */
(PID.TID 0000.0001)                 2.917343869596373E+05,      /* J =  5 */
(PID.TID 0000.0001)                 2.969047799856344E+05,      /* J =  6 */
(PID.TID 0000.0001)                 3.013599033908587E+05,      /* J =  7 */
(PID.TID 0000.0001)                 3.050890243928044E+05,      /* J =  8 */
(PID.TID 0000.0001)                 3.080831592123453E+05,      /* J =  9 */
(PID.TID 0000.0001)                 3.103350947164461E+05,      /* J = 10 */
(PID.TID 0000.0001)                 3.118394057952310E+05,      /* J = 11 */
(PID.TID 0000.0001)     2 @  3.125924684315491E+05,             /* J = 12: 13 */
(PID.TID 0000.0001)                 3.118394057952310E+05,      /* J = 14 */
(PID.TID 0000.0001)                 3.103350947164461E+05,      /* J = 15 */
(PID.TID 0000.0001)                 3.080831592123453E+05,      /* J = 16 */
(PID.TID 0000.0001)                 3.050890243928044E+05,      /* J = 17 */
(PID.TID 0000.0001)                 3.013599033908587E+05,      /* J = 18 */
(PID.TID 0000.0001)                 2.969047799856344E+05,      /* J = 19 */
(PID.TID 0000.0001)                 2.917343869596373E+05,      /* J = 20 */
(PID.TID 0000.0001)                 2.858611802425402E+05,      /* J = 21 */
(PID.TID 0000.0001)                 2.792993089037566E+05,      /* J = 22 */
(PID.TID 0000.0001)                 2.720645810660936E+05       /* J = 23 */
(PID.TID 0000.0001)     ;
(PID.TID 0000.0001) dyU =  /* dyU(:,1,:,1) ( m - cartesian, degrees - spherical ) */
(PID.TID 0000.0001)   128 @  3.126866438026091E+05              /* I =  1:128 */
(PID.TID 0000.0001)     ;
(PID.TID 0000.0001) dyU =  /* dyU(1,:,1,:) ( m - cartesian, degrees - spherical ) */
(PID.TID 0000.0001)    23 @  3.126866438026091E+05              /* J =  1: 23 */
(PID.TID 0000.0001)     ;
(PID.TID 0000.0001) rA =  /* rA(:,1,:,1) ( m - cartesian, degrees - spherical ) */
(PID.TID 0000.0001)   128 @  8.385422607492098E+10              /* I =  1:128 */
(PID.TID 0000.0001)     ;
(PID.TID 0000.0001) rA =  /* rA(1,:,1,:) ( m - cartesian, degrees - spherical ) */
(PID.TID 0000.0001)                 8.385422607492098E+10,      /* J =  1 */
(PID.TID 0000.0001)                 8.621937547463149E+10,      /* J =  2 */
(PID.TID 0000.0001)                 8.837681484689812E+10,      /* J =  3 */
(PID.TID 0000.0001)                 9.032134673130377E+10,      /* J =  4 */
(PID.TID 0000.0001)                 9.204828658021816E+10,      /* J =  5 */
(PID.TID 0000.0001)                 9.355347404428317E+10,      /* J =  6 */
(PID.TID 0000.0001)                 9.483328299505898E+10,      /* J =  7 */
(PID.TID 0000.0001)                 9.588463026068500E+10,      /* J =  8 */
(PID.TID 0000.0001)                 9.670498305351135E+10,      /* J =  9 */
(PID.TID 0000.0001)                 9.729236507180571E+10,      /* J = 10 */
(PID.TID 0000.0001)                 9.764536126083740E+10,      /* J = 11 */
(PID.TID 0000.0001)                 9.776312122186816E+10,      /* J = 12 */
(PID.TID 0000.0001)                 9.764536126083740E+10,      /* J = 13 */
(PID.TID 0000.0001)                 9.729236507180571E+10,      /* J = 14 */
(PID.TID 0000.0001)                 9.670498305351135E+10,      /* J = 15 */
(PID.TID 0000.0001)                 9.588463026068500E+10,      /* J = 16 */
(PID.TID 0000.0001)                 9.483328299505898E+10,      /* J = 17 */
(PID.TID 0000.0001)                 9.355347404428317E+10,      /* J = 18 */
(PID.TID 0000.0001)                 9.204828658021816E+10,      /* J = 19 */
(PID.TID 0000.0001)                 9.032134673130377E+10,      /* J = 20 */
(PID.TID 0000.0001)                 8.837681484689812E+10,      /* J = 21 */
(PID.TID 0000.0001)                 8.621937547463149E+10,      /* J = 22 */
(PID.TID 0000.0001)                 8.385422607492098E+10       /* J = 23 */
(PID.TID 0000.0001)     ;
(PID.TID 0000.0001) rAw =  /* rAw(:,1,:,1) ( m - cartesian, degrees - spherical ) */
(PID.TID 0000.0001)   128 @  8.385422607492098E+10              /* I =  1:128 */
(PID.TID 0000.0001)     ;
(PID.TID 0000.0001) rAw =  /* rAw(1,:,1,:) ( m - cartesian, degrees - spherical ) */
(PID.TID 0000.0001)                 8.385422607492098E+10,      /* J =  1 */
(PID.TID 0000.0001)                 8.621937547463149E+10,      /* J =  2 */
(PID.TID 0000.0001)                 8.837681484689812E+10,      /* J =  3 */
(PID.TID 0000.0001)                 9.032134673130377E+10,      /* J =  4 */
(PID.TID 0000.0001)                 9.204828658021816E+10,      /* J =  5 */
(PID.TID 0000.0001)                 9.355347404428317E+10,      /* J =  6 */
(PID.TID 0000.0001)                 9.483328299505898E+10,      /* J =  7 */
(PID.TID 0000.0001)                 9.588463026068500E+10,      /* J =  8 */
(PID.TID 0000.0001)                 9.670498305351135E+10,      /* J =  9 */
(PID.TID 0000.0001)                 9.729236507180571E+10,      /* J = 10 */
(PID.TID 0000.0001)                 9.764536126083740E+10,      /* J = 11 */
(PID.TID 0000.0001)                 9.776312122186816E+10,      /* J = 12 */
(PID.TID 0000.0001)                 9.764536126083740E+10,      /* J = 13 */
(PID.TID 0000.0001)                 9.729236507180571E+10,      /* J = 14 */
(PID.TID 0000.0001)                 9.670498305351135E+10,      /* J = 15 */
(PID.TID 0000.0001)                 9.588463026068500E+10,      /* J = 16 */
(PID.TID 0000.0001)                 9.483328299505898E+10,      /* J = 17 */
(PID.TID 0000.0001)                 9.355347404428317E+10,      /* J = 18 */
(PID.TID 0000.0001)                 9.204828658021816E+10,      /* J = 19 */
(PID.TID 0000.0001)                 9.032134673130377E+10,      /* J = 20 */
(PID.TID 0000.0001)                 8.837681484689812E+10,      /* J = 21 */
(PID.TID 0000.0001)                 8.621937547463149E+10,      /* J = 22 */
(PID.TID 0000.0001)                 8.385422607492098E+10       /* J = 23 */
(PID.TID 0000.0001)     ;
(PID.TID 0000.0001) rAs =  /* rAs(:,1,:,1) ( m - cartesian, degrees - spherical ) */
(PID.TID 0000.0001)   128 @  8.259552151423444E+10              /* I =  1:128 */
(PID.TID 0000.0001)     ;
(PID.TID 0000.0001) rAs =  /* rAs(1,:,1,:) ( m - cartesian, degrees - spherical ) */
(PID.TID 0000.0001)                 8.259552151423444E+10,      /* J =  1 */
(PID.TID 0000.0001)                 8.506241998533159E+10,      /* J =  2 */
(PID.TID 0000.0001)                 8.732439563609566E+10,      /* J =  3 */
(PID.TID 0000.0001)                 8.937599916905872E+10,      /* J =  4 */
(PID.TID 0000.0001)                 9.121228809161066E+10,      /* J =  5 */
(PID.TID 0000.0001)                 9.282883862289705E+10,      /* J =  6 */
(PID.TID 0000.0001)                 9.422175635109474E+10,      /* J =  7 */
(PID.TID 0000.0001)                 9.538768561539165E+10,      /* J =  8 */
(PID.TID 0000.0001)                 9.632381759006651E+10,      /* J =  9 */
(PID.TID 0000.0001)                 9.702789705119698E+10,      /* J = 10 */
(PID.TID 0000.0001)                 9.749822780969106E+10,      /* J = 11 */
(PID.TID 0000.0001)     2 @  9.773367679755542E+10,             /* J = 12: 13 */
(PID.TID 0000.0001)                 9.749822780969106E+10,      /* J = 14 */
(PID.TID 0000.0001)                 9.702789705119698E+10,      /* J = 15 */
(PID.TID 0000.0001)                 9.632381759006651E+10,      /* J = 16 */
(PID.TID 0000.0001)                 9.538768561539165E+10,      /* J = 17 */
(PID.TID 0000.0001)                 9.422175635109474E+10,      /* J = 18 */
(PID.TID 0000.0001)                 9.282883862289705E+10,      /* J = 19 */
(PID.TID 0000.0001)                 9.121228809161066E+10,      /* J = 20 */
(PID.TID 0000.0001)                 8.937599916905872E+10,      /* J = 21 */
(PID.TID 0000.0001)                 8.732439563609566E+10,      /* J = 22 */
(PID.TID 0000.0001)                 8.506241998533159E+10       /* J = 23 */
(PID.TID 0000.0001)     ;
(PID.TID 0000.0001) 
(PID.TID 0000.0001)  MDSREADFIELD: opening global file: pickup.0000008640
(PID.TID 0000.0001)  MDSREADFIELD: opening global file: pickup.0000008640
(PID.TID 0000.0001)  MDSREADFIELD: opening global file: pickup.0000008640
(PID.TID 0000.0001)  MDSREADFIELD: opening global file: pickup.0000008640
(PID.TID 0000.0001)  MDSREADFIELD: opening global file: pickup.0000008640
(PID.TID 0000.0001)  MDSREADFIELD: opening global file: pickup.0000008640
(PID.TID 0000.0001)  MDSREADFIELD: opening global file: pickup.0000008640
(PID.TID 0000.0001)  MDSREADFIELD: opening global file: pickup.0000008640
(PID.TID 0000.0001)  MDSREADFIELD: opening global file: pickup.0000008640
(PID.TID 0000.0001)  MDSREADFIELD: opening global file: pickup.0000008640
(PID.TID 0000.0001)  MDSREADFIELD: opening global file: pickup.0000008640
(PID.TID 0000.0001)  MDSREADFIELD: opening global file: pickup.0000008640
(PID.TID 0000.0001)  MDSREADFIELD: opening global file: pickup.0000008640
(PID.TID 0000.0001) // =======================================================
(PID.TID 0000.0001) // Model current state
(PID.TID 0000.0001) // =======================================================
(PID.TID 0000.0001) 
(PID.TID 0000.0001) // =======================================================
(PID.TID 0000.0001) // Begin MONITOR dynamic field statistics
(PID.TID 0000.0001) // =======================================================
(PID.TID 0000.0001) %MON time_tsnumber                =                  8640
(PID.TID 0000.0001) %MON time_secondsf                =   5.1840000000000E+06
(PID.TID 0000.0001) %MON time_secondsi                =               5184000
(PID.TID 0000.0001) %MON dynstat_eta_max              =   9.9081369162055E+02
(PID.TID 0000.0001) %MON dynstat_eta_min              =  -1.4582900287715E+03
(PID.TID 0000.0001) %MON dynstat_eta_mean             =   1.4019492219450E-12
(PID.TID 0000.0001) %MON dynstat_eta_sd               =   4.5582161709330E+02
(PID.TID 0000.0001) %MON dynstat_eta_del2             =   1.0859423741222E+01
(PID.TID 0000.0001) %MON dynstat_uvel_max             =   4.4357708337580E+01
(PID.TID 0000.0001) %MON dynstat_uvel_min             =  -3.1059614843420E+01
(PID.TID 0000.0001) %MON dynstat_uvel_mean            =   4.0503400037876E+00
(PID.TID 0000.0001) %MON dynstat_uvel_sd              =   1.0388463310759E+01
(PID.TID 0000.0001) %MON dynstat_uvel_del2            =   6.6704321251628E-01
(PID.TID 0000.0001) %MON dynstat_vvel_max             =   2.1911876971900E+01
(PID.TID 0000.0001) %MON dynstat_vvel_min             =  -4.0207466640580E+01
(PID.TID 0000.0001) %MON dynstat_vvel_mean            =  -7.3016145430770E-03
(PID.TID 0000.0001) %MON dynstat_vvel_sd              =   4.3075886333739E+00
(PID.TID 0000.0001) %MON dynstat_vvel_del2            =   3.3665568285528E-01
(PID.TID 0000.0001) %MON dynstat_wvel_max             =   0.0000000000000E+00
(PID.TID 0000.0001) %MON dynstat_wvel_min             =   0.0000000000000E+00
(PID.TID 0000.0001) %MON dynstat_wvel_mean            =   0.0000000000000E+00
(PID.TID 0000.0001) %MON dynstat_wvel_sd              =   0.0000000000000E+00
(PID.TID 0000.0001) %MON dynstat_wvel_del2            =   0.0000000000000E+00
(PID.TID 0000.0001) %MON dynstat_theta_max            =   4.5722276153770E+02
(PID.TID 0000.0001) %MON dynstat_theta_min            =   3.0716268125663E+02
(PID.TID 0000.0001) %MON dynstat_theta_mean           =   3.6631630706424E+02
(PID.TID 0000.0001) %MON dynstat_theta_sd             =   3.6657496851854E+01
(PID.TID 0000.0001) %MON dynstat_theta_del2           =   2.5639645286218E-01
(PID.TID 0000.0001) %MON dynstat_salt_max             =   5.8435140722437E+01
(PID.TID 0000.0001) %MON dynstat_salt_min             =  -5.4714594385799E+00
(PID.TID 0000.0001) %MON dynstat_salt_mean            =   1.2319139276195E+01
(PID.TID 0000.0001) %MON dynstat_salt_sd              =   1.0792346534731E+01
(PID.TID 0000.0001) %MON dynstat_salt_del2            =   2.4242881426308E-01
(PID.TID 0000.0001) %MON advcfl_uvel_max              =   8.7745588972601E-02
(PID.TID 0000.0001) %MON advcfl_vvel_max              =   7.7152255980518E-02
(PID.TID 0000.0001) %MON advcfl_wvel_max              =   0.0000000000000E+00
(PID.TID 0000.0001) %MON advcfl_W_hf_max              =   0.0000000000000E+00
(PID.TID 0000.0001) %MON ke_max                       =   1.0837484075284E+03
(PID.TID 0000.0001) %MON ke_mean                      =   7.1255234194367E+01
(PID.TID 0000.0001) %MON ke_volint                    =   1.9389190215037E+21
(PID.TID 0000.0001) %MON ke_volmean                   =   7.1075364016890E+01
(PID.TID 0000.0001) // =======================================================
(PID.TID 0000.0001) // End MONITOR dynamic field statistics
(PID.TID 0000.0001) // =======================================================
 cg2d: Sum(rhs),rhsMax =  -9.23569132282864E-09  3.11008963057472E+03
(PID.TID 0000.0001)                    cg2d_init_res =    3.10105612540936E+02
(PID.TID 0000.0001)                       cg2d_iters =    16
(PID.TID 0000.0001)                         cg2d_res =    6.28984077714238E-13
(PID.TID 0000.0001) // =======================================================
(PID.TID 0000.0001) // Begin MONITOR dynamic field statistics
(PID.TID 0000.0001) // =======================================================
(PID.TID 0000.0001) %MON time_tsnumber                =                  8641
(PID.TID 0000.0001) %MON time_secondsf                =   5.1846000000000E+06
(PID.TID 0000.0001) %MON time_secondsi                =               5184600
(PID.TID 0000.0001) %MON dynstat_eta_max              =   9.9189622604820E+02
(PID.TID 0000.0001) %MON dynstat_eta_min              =  -1.4600497711794E+03
(PID.TID 0000.0001) %MON dynstat_eta_mean             =   1.4316329256390E-12
(PID.TID 0000.0001) %MON dynstat_eta_sd               =   4.5593407854264E+02
(PID.TID 0000.0001) %MON dynstat_eta_del2             =   1.0828836254662E+01
(PID.TID 0000.0001) %MON dynstat_uvel_max             =   4.4247336916117E+01
(PID.TID 0000.0001) %MON dynstat_uvel_min             =  -3.1343905140386E+01
(PID.TID 0000.0001) %MON dynstat_uvel_mean            =   4.0507764534313E+00
(PID.TID 0000.0001) %MON dynstat_uvel_sd              =   1.0388578327334E+01
(PID.TID 0000.0001) %MON dynstat_uvel_del2            =   6.6705031816018E-01
(PID.TID 0000.0001) %MON dynstat_vvel_max             =   2.1962091259182E+01
(PID.TID 0000.0001) %MON dynstat_vvel_min             =  -4.0049171582868E+01
(PID.TID 0000.0001) %MON dynstat_vvel_mean            =  -7.1849740768759E-03
(PID.TID 0000.0001) %MON dynstat_vvel_sd              =   4.3087683579306E+00
(PID.TID 0000.0001) %MON dynstat_vvel_del2            =   3.3667134842875E-01
(PID.TID 0000.0001) %MON dynstat_wvel_max             =   7.6947054867924E-01
(PID.TID 0000.0001) %MON dynstat_wvel_min             =  -2.0845225302944E+00
(PID.TID 0000.0001) %MON dynstat_wvel_mean            =   6.4183854080726E-19
(PID.TID 0000.0001) %MON dynstat_wvel_sd              =   9.9800652143237E-02
(PID.TID 0000.0001) %MON dynstat_wvel_del2            =   1.0741940547841E-02
(PID.TID 0000.0001) %MON dynstat_theta_max            =   4.5723736650747E+02
(PID.TID 0000.0001) %MON dynstat_theta_min            =   3.0711412013052E+02
(PID.TID 0000.0001) %MON dynstat_theta_mean           =   3.6631698914773E+02
(PID.TID 0000.0001) %MON dynstat_theta_sd             =   3.6657050633187E+01
(PID.TID 0000.0001) %MON dynstat_theta_del2           =   2.5642513063273E-01
(PID.TID 0000.0001) %MON dynstat_salt_max             =   5.8432797651659E+01
(PID.TID 0000.0001) %MON dynstat_salt_min             =  -5.4721755613461E+00
(PID.TID 0000.0001) %MON dynstat_salt_mean            =   1.2319182456363E+01
(PID.TID 0000.0001) %MON dynstat_salt_sd              =   1.0792600786221E+01
(PID.TID 0000.0001) %MON dynstat_salt_del2            =   2.4244518073902E-01
(PID.TID 0000.0001) %MON advcfl_uvel_max              =   8.7527259267460E-02
(PID.TID 0000.0001) %MON advcfl_vvel_max              =   7.6848510884558E-02
(PID.TID 0000.0001) %MON advcfl_wvel_max              =   6.1589983693288E-02
(PID.TID 0000.0001) %MON advcfl_W_hf_max              =   6.1589983693288E-02
(PID.TID 0000.0001) %MON ke_max                       =   1.0816108393930E+03
(PID.TID 0000.0001) %MON ke_mean                      =   7.1264194790819E+01
(PID.TID 0000.0001) %MON ke_volint                    =   1.9391330147980E+21
(PID.TID 0000.0001) %MON ke_volmean                   =   7.1083208414268E+01
(PID.TID 0000.0001) // =======================================================
(PID.TID 0000.0001) // End MONITOR dynamic field statistics
(PID.TID 0000.0001) // =======================================================
 cg2d: Sum(rhs),rhsMax =  -9.37529875955079E-09  3.11413915498408E+03
(PID.TID 0000.0001)                    cg2d_init_res =    1.96638602493675E+02
(PID.TID 0000.0001)                       cg2d_iters =    15
(PID.TID 0000.0001)                         cg2d_res =    3.46377287636961E-12
(PID.TID 0000.0001) // =======================================================
(PID.TID 0000.0001) // Begin MONITOR dynamic field statistics
(PID.TID 0000.0001) // =======================================================
(PID.TID 0000.0001) %MON time_tsnumber                =                  8642
(PID.TID 0000.0001) %MON time_secondsf                =   5.1852000000000E+06
(PID.TID 0000.0001) %MON time_secondsi                =               5185200
(PID.TID 0000.0001) %MON dynstat_eta_max              =   9.9285528216486E+02
(PID.TID 0000.0001) %MON dynstat_eta_min              =  -1.4614199202533E+03
(PID.TID 0000.0001) %MON dynstat_eta_mean             =   1.4184743843844E-12
(PID.TID 0000.0001) %MON dynstat_eta_sd               =   4.5604714217582E+02
(PID.TID 0000.0001) %MON dynstat_eta_del2             =   1.0818547242056E+01
(PID.TID 0000.0001) %MON dynstat_uvel_max             =   4.4156917734011E+01
(PID.TID 0000.0001) %MON dynstat_uvel_min             =  -3.1604768191565E+01
(PID.TID 0000.0001) %MON dynstat_uvel_mean            =   4.0512155422680E+00
(PID.TID 0000.0001) %MON dynstat_uvel_sd              =   1.0388680651562E+01
(PID.TID 0000.0001) %MON dynstat_uvel_del2            =   6.6705188053943E-01
(PID.TID 0000.0001) %MON dynstat_vvel_max             =   2.1994785431659E+01
(PID.TID 0000.0001) %MON dynstat_vvel_min             =  -3.9900341754517E+01
(PID.TID 0000.0001) %MON dynstat_vvel_mean            =  -7.0705243145086E-03
(PID.TID 0000.0001) %MON dynstat_vvel_sd              =   4.3099504814313E+00
(PID.TID 0000.0001) %MON dynstat_vvel_del2            =   3.3675890846077E-01
(PID.TID 0000.0001) %MON dynstat_wvel_max             =   7.7533762657307E-01
(PID.TID 0000.0001) %MON dynstat_wvel_min             =  -2.0722350608456E+00
(PID.TID 0000.0001) %MON dynstat_wvel_mean            =  -2.0066791771058E-20
(PID.TID 0000.0001) %MON dynstat_wvel_sd              =   9.9815604009808E-02
(PID.TID 0000.0001) %MON dynstat_wvel_del2            =   1.0811442464321E-02
(PID.TID 0000.0001) %MON dynstat_theta_max            =   4.5725203982852E+02
(PID.TID 0000.0001) %MON dynstat_theta_min            =   3.0706696416000E+02
(PID.TID 0000.0001) %MON dynstat_theta_mean           =   3.6631767566221E+02
(PID.TID 0000.0001) %MON dynstat_theta_sd             =   3.6656607003128E+01
(PID.TID 0000.0001) %MON dynstat_theta_del2           =   2.5647905595031E-01
(PID.TID 0000.0001) %MON dynstat_salt_max             =   5.8430802949067E+01
(PID.TID 0000.0001) %MON dynstat_salt_min             =  -5.4728553229360E+00
(PID.TID 0000.0001) %MON dynstat_salt_mean            =   1.2319224696914E+01
(PID.TID 0000.0001) %MON dynstat_salt_sd              =   1.0792853204629E+01
(PID.TID 0000.0001) %MON dynstat_salt_del2            =   2.4246281726882E-01
(PID.TID 0000.0001) %MON advcfl_uvel_max              =   8.7348397809427E-02
(PID.TID 0000.0001) %MON advcfl_vvel_max              =   7.6562928181298E-02
(PID.TID 0000.0001) %MON advcfl_wvel_max              =   6.1102667009279E-02
(PID.TID 0000.0001) %MON advcfl_W_hf_max              =   6.1102667009279E-02
(PID.TID 0000.0001) %MON ke_max                       =   1.0793623566809E+03
(PID.TID 0000.0001) %MON ke_mean                      =   7.1272981568671E+01
(PID.TID 0000.0001) %MON ke_volint                    =   1.9393440164922E+21
(PID.TID 0000.0001) %MON ke_volmean                   =   7.1090943147929E+01
(PID.TID 0000.0001) // =======================================================
(PID.TID 0000.0001) // End MONITOR dynamic field statistics
(PID.TID 0000.0001) // =======================================================
 cg2d: Sum(rhs),rhsMax =  -9.14133124751970E-09  3.11881375675839E+03
(PID.TID 0000.0001)                    cg2d_init_res =    1.65256617472036E+02
(PID.TID 0000.0001)                       cg2d_iters =    15
(PID.TID 0000.0001)                         cg2d_res =    2.54878584456764E-12
(PID.TID 0000.0001) // =======================================================
(PID.TID 0000.0001) // Begin MONITOR dynamic field statistics
(PID.TID 0000.0001) // =======================================================
(PID.TID 0000.0001) %MON time_tsnumber                =                  8643
(PID.TID 0000.0001) %MON time_secondsf                =   5.1858000000000E+06
(PID.TID 0000.0001) %MON time_secondsi                =               5185800
(PID.TID 0000.0001) %MON dynstat_eta_max              =   9.9362973749056E+02
(PID.TID 0000.0001) %MON dynstat_eta_min              =  -1.4630521407446E+03
(PID.TID 0000.0001) %MON dynstat_eta_mean             =   1.5081442233695E-12
(PID.TID 0000.0001) %MON dynstat_eta_sd               =   4.5616170469490E+02
(PID.TID 0000.0001) %MON dynstat_eta_del2             =   1.0817877070095E+01
(PID.TID 0000.0001) %MON dynstat_uvel_max             =   4.4079182427594E+01
(PID.TID 0000.0001) %MON dynstat_uvel_min             =  -3.1849633749399E+01
(PID.TID 0000.0001) %MON dynstat_uvel_mean            =   4.0516548020721E+00
(PID.TID 0000.0001) %MON dynstat_uvel_sd              =   1.0388775258157E+01
(PID.TID 0000.0001) %MON dynstat_uvel_del2            =   6.6704470328042E-01
(PID.TID 0000.0001) %MON dynstat_vvel_max             =   2.2012810957726E+01
(PID.TID 0000.0001) %MON dynstat_vvel_min             =  -3.9752576424449E+01
(PID.TID 0000.0001) %MON dynstat_vvel_mean            =  -6.9550679070482E-03
(PID.TID 0000.0001) %MON dynstat_vvel_sd              =   4.3111400339156E+00
(PID.TID 0000.0001) %MON dynstat_vvel_del2            =   3.3687982930160E-01
(PID.TID 0000.0001) %MON dynstat_wvel_max             =   7.7779905439198E-01
(PID.TID 0000.0001) %MON dynstat_wvel_min             =  -2.0641834408303E+00
(PID.TID 0000.0001) %MON dynstat_wvel_mean            =   1.7532417777958E-18
(PID.TID 0000.0001) %MON dynstat_wvel_sd              =   9.9812385073932E-02
(PID.TID 0000.0001) %MON dynstat_wvel_del2            =   1.0797676488682E-02
(PID.TID 0000.0001) %MON dynstat_theta_max            =   4.5726666953055E+02
(PID.TID 0000.0001) %MON dynstat_theta_min            =   3.0702301043363E+02
(PID.TID 0000.0001) %MON dynstat_theta_mean           =   3.6631836716894E+02
(PID.TID 0000.0001) %MON dynstat_theta_sd             =   3.6656164177022E+01
(PID.TID 0000.0001) %MON dynstat_theta_del2           =   2.5651268365495E-01
(PID.TID 0000.0001) %MON dynstat_salt_max             =   5.8429265365355E+01
(PID.TID 0000.0001) %MON dynstat_salt_min             =  -5.4735076510292E+00
(PID.TID 0000.0001) %MON dynstat_salt_mean            =   1.2319266028918E+01
(PID.TID 0000.0001) %MON dynstat_salt_sd              =   1.0793106606145E+01
(PID.TID 0000.0001) %MON dynstat_salt_del2            =   2.4248291214298E-01
(PID.TID 0000.0001) %MON advcfl_uvel_max              =   8.7194626785152E-02
(PID.TID 0000.0001) %MON advcfl_vvel_max              =   7.6279388094766E-02
(PID.TID 0000.0001) %MON advcfl_wvel_max              =   6.0678288371240E-02
(PID.TID 0000.0001) %MON advcfl_W_hf_max              =   6.0678288371240E-02
(PID.TID 0000.0001) %MON ke_max                       =   1.0769546841674E+03
(PID.TID 0000.0001) %MON ke_mean                      =   7.1281672509064E+01
(PID.TID 0000.0001) %MON ke_volint                    =   1.9395537315284E+21
(PID.TID 0000.0001) %MON ke_volmean                   =   7.1098630716298E+01
(PID.TID 0000.0001) // =======================================================
(PID.TID 0000.0001) // End MONITOR dynamic field statistics
(PID.TID 0000.0001) // =======================================================
 cg2d: Sum(rhs),rhsMax =  -9.67384039540775E-09  3.12474346437340E+03
(PID.TID 0000.0001)                    cg2d_init_res =    1.64682009092602E+02
(PID.TID 0000.0001)                       cg2d_iters =    15
(PID.TID 0000.0001)                         cg2d_res =    2.53462599129634E-12
(PID.TID 0000.0001) // =======================================================
(PID.TID 0000.0001) // Begin MONITOR dynamic field statistics
(PID.TID 0000.0001) // =======================================================
(PID.TID 0000.0001) %MON time_tsnumber                =                  8644
(PID.TID 0000.0001) %MON time_secondsf                =   5.1864000000000E+06
(PID.TID 0000.0001) %MON time_secondsi                =               5186400
(PID.TID 0000.0001) %MON dynstat_eta_max              =   9.9427722024526E+02
(PID.TID 0000.0001) %MON dynstat_eta_min              =  -1.4650291452083E+03
(PID.TID 0000.0001) %MON dynstat_eta_mean             =   1.4603116260672E-12
(PID.TID 0000.0001) %MON dynstat_eta_sd               =   4.5627826934321E+02
(PID.TID 0000.0001) %MON dynstat_eta_del2             =   1.0821617870238E+01
(PID.TID 0000.0001) %MON dynstat_uvel_max             =   4.3996364413939E+01
(PID.TID 0000.0001) %MON dynstat_uvel_min             =  -3.2082055853372E+01
(PID.TID 0000.0001) %MON dynstat_uvel_mean            =   4.0520937043679E+00
(PID.TID 0000.0001) %MON dynstat_uvel_sd              =   1.0388863089122E+01
(PID.TID 0000.0001) %MON dynstat_uvel_del2            =   6.6704000256843E-01
(PID.TID 0000.0001) %MON dynstat_vvel_max             =   2.2017174654922E+01
(PID.TID 0000.0001) %MON dynstat_vvel_min             =  -3.9603336725590E+01
(PID.TID 0000.0001) %MON dynstat_vvel_mean            =  -6.8351035327551E-03
(PID.TID 0000.0001) %MON dynstat_vvel_sd              =   4.3123366330463E+00
(PID.TID 0000.0001) %MON dynstat_vvel_del2            =   3.3700849149913E-01
(PID.TID 0000.0001) %MON dynstat_wvel_max             =   7.7831137132254E-01
(PID.TID 0000.0001) %MON dynstat_wvel_min             =  -2.0584108122542E+00
(PID.TID 0000.0001) %MON dynstat_wvel_mean            =  -1.6078298554281E-18
(PID.TID 0000.0001) %MON dynstat_wvel_sd              =   9.9806897152589E-02
(PID.TID 0000.0001) %MON dynstat_wvel_del2            =   1.0780325506779E-02
(PID.TID 0000.0001) %MON dynstat_theta_max            =   4.5728129691174E+02
(PID.TID 0000.0001) %MON dynstat_theta_min            =   3.0698206497150E+02
(PID.TID 0000.0001) %MON dynstat_theta_mean           =   3.6631906355522E+02
(PID.TID 0000.0001) %MON dynstat_theta_sd             =   3.6655721500948E+01
(PID.TID 0000.0001) %MON dynstat_theta_del2           =   2.5653332022648E-01
(PID.TID 0000.0001) %MON dynstat_salt_max             =   5.8428090577405E+01
(PID.TID 0000.0001) %MON dynstat_salt_min             =  -5.4741438698806E+00
(PID.TID 0000.0001) %MON dynstat_salt_mean            =   1.2319306409122E+01
(PID.TID 0000.0001) %MON dynstat_salt_sd              =   1.0793360082274E+01
(PID.TID 0000.0001) %MON dynstat_salt_del2            =   2.4250101412834E-01
(PID.TID 0000.0001) %MON advcfl_uvel_max              =   8.7030801473656E-02
(PID.TID 0000.0001) %MON advcfl_vvel_max              =   7.5993018909865E-02
(PID.TID 0000.0001) %MON advcfl_wvel_max              =   6.0287453749248E-02
(PID.TID 0000.0001) %MON advcfl_W_hf_max              =   6.0287453749248E-02
(PID.TID 0000.0001) %MON ke_max                       =   1.0743804281545E+03
(PID.TID 0000.0001) %MON ke_mean                      =   7.1290277360850E+01
(PID.TID 0000.0001) %MON ke_volint                    =   1.9397623252727E+21
(PID.TID 0000.0001) %MON ke_volmean                   =   7.1106277181232E+01
(PID.TID 0000.0001) // =======================================================
(PID.TID 0000.0001) // End MONITOR dynamic field statistics
(PID.TID 0000.0001) // =======================================================
 cg2d: Sum(rhs),rhsMax =  -9.75819602899719E-09  3.13113983601310E+03
(PID.TID 0000.0001)                    cg2d_init_res =    1.64834874798161E+02
(PID.TID 0000.0001)                       cg2d_iters =    15
(PID.TID 0000.0001)                         cg2d_res =    2.54599084122657E-12
(PID.TID 0000.0001) // =======================================================
(PID.TID 0000.0001) // Begin MONITOR dynamic field statistics
(PID.TID 0000.0001) // =======================================================
(PID.TID 0000.0001) %MON time_tsnumber                =                  8645
(PID.TID 0000.0001) %MON time_secondsf                =   5.1870000000000E+06
(PID.TID 0000.0001) %MON time_secondsi                =               5187000
(PID.TID 0000.0001) %MON dynstat_eta_max              =   9.9487316190564E+02
(PID.TID 0000.0001) %MON dynstat_eta_min              =  -1.4671184585914E+03
(PID.TID 0000.0001) %MON dynstat_eta_mean             =   1.3857868055209E-12
(PID.TID 0000.0001) %MON dynstat_eta_sd               =   4.5639677515241E+02
(PID.TID 0000.0001) %MON dynstat_eta_del2             =   1.0827073764306E+01
(PID.TID 0000.0001) %MON dynstat_uvel_max             =   4.3908410278232E+01
(PID.TID 0000.0001) %MON dynstat_uvel_min             =  -3.2302779510388E+01
(PID.TID 0000.0001) %MON dynstat_uvel_mean            =   4.0525321720203E+00
(PID.TID 0000.0001) %MON dynstat_uvel_sd              =   1.0388944333923E+01
(PID.TID 0000.0001) %MON dynstat_uvel_del2            =   6.6703618327238E-01
(PID.TID 0000.0001) %MON dynstat_vvel_max             =   2.2007995968841E+01
(PID.TID 0000.0001) %MON dynstat_vvel_min             =  -3.9451881003358E+01
(PID.TID 0000.0001) %MON dynstat_vvel_mean            =  -6.7087341709960E-03
(PID.TID 0000.0001) %MON dynstat_vvel_sd              =   4.3135397136625E+00
(PID.TID 0000.0001) %MON dynstat_vvel_del2            =   3.3714529374808E-01
(PID.TID 0000.0001) %MON dynstat_wvel_max             =   7.7773511348308E-01
(PID.TID 0000.0001) %MON dynstat_wvel_min             =  -2.0535862477755E+00
(PID.TID 0000.0001) %MON dynstat_wvel_mean            =   8.0288063142246E-19
(PID.TID 0000.0001) %MON dynstat_wvel_sd              =   9.9805697621109E-02
(PID.TID 0000.0001) %MON dynstat_wvel_del2            =   1.0774420846516E-02
(PID.TID 0000.0001) %MON dynstat_theta_max            =   4.5729595483267E+02
(PID.TID 0000.0001) %MON dynstat_theta_min            =   3.0694382540343E+02
(PID.TID 0000.0001) %MON dynstat_theta_mean           =   3.6631976689009E+02
(PID.TID 0000.0001) %MON dynstat_theta_sd             =   3.6655278685251E+01
(PID.TID 0000.0001) %MON dynstat_theta_del2           =   2.5654344208093E-01
(PID.TID 0000.0001) %MON dynstat_salt_max             =   5.8427244420164E+01
(PID.TID 0000.0001) %MON dynstat_salt_min             =  -5.4747753291016E+00
(PID.TID 0000.0001) %MON dynstat_salt_mean            =   1.2319345117436E+01
(PID.TID 0000.0001) %MON dynstat_salt_sd              =   1.0793612638187E+01
(PID.TID 0000.0001) %MON dynstat_salt_del2            =   2.4251794659491E-01
(PID.TID 0000.0001) %MON advcfl_uvel_max              =   8.6856816213159E-02
(PID.TID 0000.0001) %MON advcfl_vvel_max              =   7.5702397499772E-02
(PID.TID 0000.0001) %MON advcfl_wvel_max              =   5.9908381358528E-02
(PID.TID 0000.0001) %MON advcfl_W_hf_max              =   5.9908381358528E-02
(PID.TID 0000.0001) %MON ke_max                       =   1.0716413971428E+03
(PID.TID 0000.0001) %MON ke_mean                      =   7.1298796885403E+01
(PID.TID 0000.0001) %MON ke_volint                    =   1.9399697793168E+21
(PID.TID 0000.0001) %MON ke_volmean                   =   7.1113881867934E+01
(PID.TID 0000.0001) // =======================================================
(PID.TID 0000.0001) // End MONITOR dynamic field statistics
(PID.TID 0000.0001) // =======================================================
 cg2d: Sum(rhs),rhsMax =  -8.84620021679439E-09  3.13726821737040E+03
(PID.TID 0000.0001)                    cg2d_init_res =    1.63543169194063E+02
(PID.TID 0000.0001)                       cg2d_iters =    15
(PID.TID 0000.0001)                         cg2d_res =    2.44442372392998E-12
(PID.TID 0000.0001) // =======================================================
(PID.TID 0000.0001) // Begin MONITOR dynamic field statistics
(PID.TID 0000.0001) // =======================================================
(PID.TID 0000.0001) %MON time_tsnumber                =                  8646
(PID.TID 0000.0001) %MON time_secondsf                =   5.1876000000000E+06
(PID.TID 0000.0001) %MON time_secondsi                =               5187600
(PID.TID 0000.0001) %MON dynstat_eta_max              =   9.9547193606457E+02
(PID.TID 0000.0001) %MON dynstat_eta_min              =  -1.4691177534253E+03
(PID.TID 0000.0001) %MON dynstat_eta_mean             =   1.4677074246180E-12
(PID.TID 0000.0001) %MON dynstat_eta_sd               =   4.5651680871252E+02
(PID.TID 0000.0001) %MON dynstat_eta_del2             =   1.0832994476144E+01
(PID.TID 0000.0001) %MON dynstat_uvel_max             =   4.3815367954766E+01
(PID.TID 0000.0001) %MON dynstat_uvel_min             =  -3.2511857859230E+01
(PID.TID 0000.0001) %MON dynstat_uvel_mean            =   4.0529703592041E+00
(PID.TID 0000.0001) %MON dynstat_uvel_sd              =   1.0389018694474E+01
(PID.TID 0000.0001) %MON dynstat_uvel_del2            =   6.6704906743412E-01
(PID.TID 0000.0001) %MON dynstat_vvel_max             =   2.1985142551109E+01
(PID.TID 0000.0001) %MON dynstat_vvel_min             =  -3.9297848917462E+01
(PID.TID 0000.0001) %MON dynstat_vvel_mean            =  -6.5759526599141E-03
(PID.TID 0000.0001) %MON dynstat_vvel_sd              =   4.3147489261469E+00
(PID.TID 0000.0001) %MON dynstat_vvel_del2            =   3.3729577591733E-01
(PID.TID 0000.0001) %MON dynstat_wvel_max             =   7.7634134142244E-01
(PID.TID 0000.0001) %MON dynstat_wvel_min             =  -2.0493455832692E+00
(PID.TID 0000.0001) %MON dynstat_wvel_mean            =   3.5802662552322E-18
(PID.TID 0000.0001) %MON dynstat_wvel_sd              =   9.9810798068629E-02
(PID.TID 0000.0001) %MON dynstat_wvel_del2            =   1.0776201010138E-02
(PID.TID 0000.0001) %MON dynstat_theta_max            =   4.5731066759427E+02
(PID.TID 0000.0001) %MON dynstat_theta_min            =   3.0690804258052E+02
(PID.TID 0000.0001) %MON dynstat_theta_mean           =   3.6632047615761E+02
(PID.TID 0000.0001) %MON dynstat_theta_sd             =   3.6654836460364E+01
(PID.TID 0000.0001) %MON dynstat_theta_del2           =   2.5654534582323E-01
(PID.TID 0000.0001) %MON dynstat_salt_max             =   5.8426673803179E+01
(PID.TID 0000.0001) %MON dynstat_salt_min             =  -5.4754088805504E+00
(PID.TID 0000.0001) %MON dynstat_salt_mean            =   1.2319382496987E+01
(PID.TID 0000.0001) %MON dynstat_salt_sd              =   1.0793864062106E+01
(PID.TID 0000.0001) %MON dynstat_salt_del2            =   2.4253664495459E-01
(PID.TID 0000.0001) %MON advcfl_uvel_max              =   8.6672765824221E-02
(PID.TID 0000.0001) %MON advcfl_vvel_max              =   7.5406832424099E-02
(PID.TID 0000.0001) %MON advcfl_wvel_max              =   5.9533973809194E-02
(PID.TID 0000.0001) %MON advcfl_W_hf_max              =   5.9533973809194E-02
(PID.TID 0000.0001) %MON ke_max                       =   1.0687418035462E+03
(PID.TID 0000.0001) %MON ke_mean                      =   7.1307227394914E+01
(PID.TID 0000.0001) %MON ke_volint                    =   1.9401759873099E+21
(PID.TID 0000.0001) %MON ke_volmean                   =   7.1121440877884E+01
(PID.TID 0000.0001) // =======================================================
(PID.TID 0000.0001) // End MONITOR dynamic field statistics
(PID.TID 0000.0001) // =======================================================
 cg2d: Sum(rhs),rhsMax =  -8.76661943038926E-09  3.14282461799884E+03
(PID.TID 0000.0001)                    cg2d_init_res =    1.62391007575962E+02
(PID.TID 0000.0001)                       cg2d_iters =    15
(PID.TID 0000.0001)                         cg2d_res =    2.35101035071940E-12
(PID.TID 0000.0001) // =======================================================
(PID.TID 0000.0001) // Begin MONITOR dynamic field statistics
(PID.TID 0000.0001) // =======================================================
(PID.TID 0000.0001) %MON time_tsnumber                =                  8647
(PID.TID 0000.0001) %MON time_secondsf                =   5.1882000000000E+06
(PID.TID 0000.0001) %MON time_secondsi                =               5188200
(PID.TID 0000.0001) %MON dynstat_eta_max              =   9.9610199774455E+02
(PID.TID 0000.0001) %MON dynstat_eta_min              =  -1.4709386908200E+03
(PID.TID 0000.0001) %MON dynstat_eta_mean             =   1.5279979293157E-12
(PID.TID 0000.0001) %MON dynstat_eta_sd               =   4.5663790796565E+02
(PID.TID 0000.0001) %MON dynstat_eta_del2             =   1.0838892261976E+01
(PID.TID 0000.0001) %MON dynstat_uvel_max             =   4.3717353717715E+01
(PID.TID 0000.0001) %MON dynstat_uvel_min             =  -3.2709385158037E+01
(PID.TID 0000.0001) %MON dynstat_uvel_mean            =   4.0534084661532E+00
(PID.TID 0000.0001) %MON dynstat_uvel_sd              =   1.0389085928736E+01
(PID.TID 0000.0001) %MON dynstat_uvel_del2            =   6.6707797723558E-01
(PID.TID 0000.0001) %MON dynstat_vvel_max             =   2.1948742019010E+01
(PID.TID 0000.0001) %MON dynstat_vvel_min             =  -3.9140976804303E+01
(PID.TID 0000.0001) %MON dynstat_vvel_mean            =  -6.4379017730097E-03
(PID.TID 0000.0001) %MON dynstat_vvel_sd              =   4.3159637689222E+00
(PID.TID 0000.0001) %MON dynstat_vvel_del2            =   3.3745479371503E-01
(PID.TID 0000.0001) %MON dynstat_wvel_max             =   7.7420919660271E-01
(PID.TID 0000.0001) %MON dynstat_wvel_min             =  -2.0456177119064E+00
(PID.TID 0000.0001) %MON dynstat_wvel_mean            =  -1.1163135649633E-18
(PID.TID 0000.0001) %MON dynstat_wvel_sd              =   9.9821777999699E-02
(PID.TID 0000.0001) %MON dynstat_wvel_del2            =   1.0782521814695E-02
(PID.TID 0000.0001) %MON dynstat_theta_max            =   4.5732545034350E+02
(PID.TID 0000.0001) %MON dynstat_theta_min            =   3.0687461245279E+02
(PID.TID 0000.0001) %MON dynstat_theta_mean           =   3.6632119253159E+02
(PID.TID 0000.0001) %MON dynstat_theta_sd             =   3.6654395611516E+01
(PID.TID 0000.0001) %MON dynstat_theta_del2           =   2.5653814377213E-01
(PID.TID 0000.0001) %MON dynstat_salt_max             =   5.8426319989026E+01
(PID.TID 0000.0001) %MON dynstat_salt_min             =  -5.4760472183992E+00
(PID.TID 0000.0001) %MON dynstat_salt_mean            =   1.2319418231902E+01
(PID.TID 0000.0001) %MON dynstat_salt_sd              =   1.0794114110663E+01
(PID.TID 0000.0001) %MON dynstat_salt_del2            =   2.4255935011033E-01
(PID.TID 0000.0001) %MON advcfl_uvel_max              =   8.6478880312996E-02
(PID.TID 0000.0001) %MON advcfl_vvel_max              =   7.5105817750908E-02
(PID.TID 0000.0001) %MON advcfl_wvel_max              =   5.9162064802747E-02
(PID.TID 0000.0001) %MON advcfl_W_hf_max              =   5.9162064802747E-02
(PID.TID 0000.0001) %MON ke_max                       =   1.0656875402378E+03
(PID.TID 0000.0001) %MON ke_mean                      =   7.1315565237610E+01
(PID.TID 0000.0001) %MON ke_volint                    =   1.9403808468552E+21
(PID.TID 0000.0001) %MON ke_volmean                   =   7.1128950457497E+01
(PID.TID 0000.0001) // =======================================================
(PID.TID 0000.0001) // End MONITOR dynamic field statistics
(PID.TID 0000.0001) // =======================================================
 cg2d: Sum(rhs),rhsMax =  -9.36802280193660E-09  3.14779002888122E+03
(PID.TID 0000.0001)                    cg2d_init_res =    1.61799835674703E+02
(PID.TID 0000.0001)                       cg2d_iters =    15
(PID.TID 0000.0001)                         cg2d_res =    2.30254603158652E-12
(PID.TID 0000.0001) // =======================================================
(PID.TID 0000.0001) // Begin MONITOR dynamic field statistics
(PID.TID 0000.0001) // =======================================================
(PID.TID 0000.0001) %MON time_tsnumber                =                  8648
(PID.TID 0000.0001) %MON time_secondsf                =   5.1888000000000E+06
(PID.TID 0000.0001) %MON time_secondsi                =               5188800
(PID.TID 0000.0001) %MON dynstat_eta_max              =   9.9677328991182E+02
(PID.TID 0000.0001) %MON dynstat_eta_min              =  -1.4725679994593E+03
(PID.TID 0000.0001) %MON dynstat_eta_mean             =   1.3965580917194E-12
(PID.TID 0000.0001) %MON dynstat_eta_sd               =   4.5675974201585E+02
(PID.TID 0000.0001) %MON dynstat_eta_del2             =   1.0842432369045E+01
(PID.TID 0000.0001) %MON dynstat_uvel_max             =   4.3614522954408E+01
(PID.TID 0000.0001) %MON dynstat_uvel_min             =  -3.2895622156766E+01
(PID.TID 0000.0001) %MON dynstat_uvel_mean            =   4.0538466281987E+00
(PID.TID 0000.0001) %MON dynstat_uvel_sd              =   1.0389146017990E+01
(PID.TID 0000.0001) %MON dynstat_uvel_del2            =   6.6711009402368E-01
(PID.TID 0000.0001) %MON dynstat_vvel_max             =   2.1899010660628E+01
(PID.TID 0000.0001) %MON dynstat_vvel_min             =  -3.8981022608203E+01
(PID.TID 0000.0001) %MON dynstat_vvel_mean            =  -6.2958021673861E-03
(PID.TID 0000.0001) %MON dynstat_vvel_sd              =   4.3171835445920E+00
(PID.TID 0000.0001) %MON dynstat_vvel_del2            =   3.3762783666559E-01
(PID.TID 0000.0001) %MON dynstat_wvel_max             =   7.7140505673658E-01
(PID.TID 0000.0001) %MON dynstat_wvel_min             =  -2.0423422662609E+00
(PID.TID 0000.0001) %MON dynstat_wvel_mean            =  -5.3271262884741E-18
(PID.TID 0000.0001) %MON dynstat_wvel_sd              =   9.9837304925962E-02
(PID.TID 0000.0001) %MON dynstat_wvel_del2            =   1.0790680609958E-02
(PID.TID 0000.0001) %MON dynstat_theta_max            =   4.5734030777968E+02
(PID.TID 0000.0001) %MON dynstat_theta_min            =   3.0684352611405E+02
(PID.TID 0000.0001) %MON dynstat_theta_mean           =   3.6632191845971E+02
(PID.TID 0000.0001) %MON dynstat_theta_sd             =   3.6653957214189E+01
(PID.TID 0000.0001) %MON dynstat_theta_del2           =   2.5651749291364E-01
(PID.TID 0000.0001) %MON dynstat_salt_max             =   5.8426140773810E+01
(PID.TID 0000.0001) %MON dynstat_salt_min             =  -5.4766927880702E+00
(PID.TID 0000.0001) %MON dynstat_salt_mean            =   1.2319451625846E+01
(PID.TID 0000.0001) %MON dynstat_salt_sd              =   1.0794362397269E+01
(PID.TID 0000.0001) %MON dynstat_salt_del2            =   2.4258269521884E-01
(PID.TID 0000.0001) %MON advcfl_uvel_max              =   8.6275467056789E-02
(PID.TID 0000.0001) %MON advcfl_vvel_max              =   7.4798889010706E-02
(PID.TID 0000.0001) %MON advcfl_wvel_max              =   5.8791017162184E-02
(PID.TID 0000.0001) %MON advcfl_W_hf_max              =   5.8791017162184E-02
(PID.TID 0000.0001) %MON ke_max                       =   1.0624858924843E+03
(PID.TID 0000.0001) %MON ke_mean                      =   7.1323807957846E+01
(PID.TID 0000.0001) %MON ke_volint                    =   1.9405842894662E+21
(PID.TID 0000.0001) %MON ke_volmean                   =   7.1136408096250E+01
(PID.TID 0000.0001) // =======================================================
(PID.TID 0000.0001) // End MONITOR dynamic field statistics
(PID.TID 0000.0001) // =======================================================
 cg2d: Sum(rhs),rhsMax =  -8.86029738467187E-09  3.15223272806362E+03
(PID.TID 0000.0001)                    cg2d_init_res =    1.61660435149034E+02
(PID.TID 0000.0001)                       cg2d_iters =    15
(PID.TID 0000.0001)                         cg2d_res =    2.28906510670960E-12
(PID.TID 0000.0001) // =======================================================
(PID.TID 0000.0001) // Begin MONITOR dynamic field statistics
(PID.TID 0000.0001) // =======================================================
(PID.TID 0000.0001) %MON time_tsnumber                =                  8649
(PID.TID 0000.0001) %MON time_secondsf                =   5.1894000000000E+06
(PID.TID 0000.0001) %MON time_secondsi                =               5189400
(PID.TID 0000.0001) %MON dynstat_eta_max              =   9.9748538908205E+02
(PID.TID 0000.0001) %MON dynstat_eta_min              =  -1.4740172217880E+03
(PID.TID 0000.0001) %MON dynstat_eta_mean             =   1.4387938889307E-12
(PID.TID 0000.0001) %MON dynstat_eta_sd               =   4.5688217990198E+02
(PID.TID 0000.0001) %MON dynstat_eta_del2             =   1.0844321582185E+01
(PID.TID 0000.0001) %MON dynstat_uvel_max             =   4.3507045725538E+01
(PID.TID 0000.0001) %MON dynstat_uvel_min             =  -3.3070907950348E+01
(PID.TID 0000.0001) %MON dynstat_uvel_mean            =   4.0542848880260E+00
(PID.TID 0000.0001) %MON dynstat_uvel_sd              =   1.0389199205107E+01
(PID.TID 0000.0001) %MON dynstat_uvel_del2            =   6.6715464245584E-01
(PID.TID 0000.0001) %MON dynstat_vvel_max             =   2.1835802041026E+01
(PID.TID 0000.0001) %MON dynstat_vvel_min             =  -3.8817747855762E+01
(PID.TID 0000.0001) %MON dynstat_vvel_mean            =  -6.1505748386740E-03
(PID.TID 0000.0001) %MON dynstat_vvel_sd              =   4.3184070924341E+00
(PID.TID 0000.0001) %MON dynstat_vvel_del2            =   3.3782377865503E-01
(PID.TID 0000.0001) %MON dynstat_wvel_max             =   7.6802882385128E-01
(PID.TID 0000.0001) %MON dynstat_wvel_min             =  -2.0394143696591E+00
(PID.TID 0000.0001) %MON dynstat_wvel_mean            =   5.5502843208708E-18
(PID.TID 0000.0001) %MON dynstat_wvel_sd              =   9.9856183306745E-02
(PID.TID 0000.0001) %MON dynstat_wvel_del2            =   1.0799545525494E-02
(PID.TID 0000.0001) %MON dynstat_theta_max            =   4.5735523542338E+02
(PID.TID 0000.0001) %MON dynstat_theta_min            =   3.0681480160206E+02
(PID.TID 0000.0001) %MON dynstat_theta_mean           =   3.6632265621374E+02
(PID.TID 0000.0001) %MON dynstat_theta_sd             =   3.6653522377257E+01
(PID.TID 0000.0001) %MON dynstat_theta_del2           =   2.5649566020593E-01
(PID.TID 0000.0001) %MON dynstat_salt_max             =   5.8426102774597E+01
(PID.TID 0000.0001) %MON dynstat_salt_min             =  -5.4773475365865E+00
(PID.TID 0000.0001) %MON dynstat_salt_mean            =   1.2319482058288E+01
(PID.TID 0000.0001) %MON dynstat_salt_sd              =   1.0794608226550E+01
(PID.TID 0000.0001) %MON dynstat_salt_del2            =   2.4260452532768E-01
(PID.TID 0000.0001) %MON advcfl_uvel_max              =   8.6062862458810E-02
(PID.TID 0000.0001) %MON advcfl_vvel_max              =   7.4485588607871E-02
(PID.TID 0000.0001) %MON advcfl_wvel_max              =   5.8418744504068E-02
(PID.TID 0000.0001) %MON advcfl_W_hf_max              =   5.8418744504068E-02
(PID.TID 0000.0001) %MON ke_max                       =   1.0591447845197E+03
(PID.TID 0000.0001) %MON ke_mean                      =   7.1331953184575E+01
(PID.TID 0000.0001) %MON ke_volint                    =   1.9407862579715E+21
(PID.TID 0000.0001) %MON ke_volmean                   =   7.1143811698396E+01
(PID.TID 0000.0001) // =======================================================
(PID.TID 0000.0001) // End MONITOR dynamic field statistics
(PID.TID 0000.0001) // =======================================================
 cg2d: Sum(rhs),rhsMax =  -9.08676156541333E-09  3.15620798494414E+03
(PID.TID 0000.0001)                    cg2d_init_res =    1.61766663457713E+02
(PID.TID 0000.0001)                       cg2d_iters =    15
(PID.TID 0000.0001)                         cg2d_res =    2.29315861567730E-12
(PID.TID 0000.0001) // =======================================================
(PID.TID 0000.0001) // Begin MONITOR dynamic field statistics
(PID.TID 0000.0001) // =======================================================
(PID.TID 0000.0001) %MON time_tsnumber                =                  8650
(PID.TID 0000.0001) %MON time_secondsf                =   5.1900000000000E+06
(PID.TID 0000.0001) %MON time_secondsi                =               5190000
(PID.TID 0000.0001) %MON dynstat_eta_max              =   9.9823303749986E+02
(PID.TID 0000.0001) %MON dynstat_eta_min              =  -1.4752971231958E+03
(PID.TID 0000.0001) %MON dynstat_eta_mean             =   1.4926944689521E-12
(PID.TID 0000.0001) %MON dynstat_eta_sd               =   4.5700526354985E+02
(PID.TID 0000.0001) %MON dynstat_eta_del2             =   1.0844701972516E+01
(PID.TID 0000.0001) %MON dynstat_uvel_max             =   4.3395084558548E+01
(PID.TID 0000.0001) %MON dynstat_uvel_min             =  -3.3235556225939E+01
(PID.TID 0000.0001) %MON dynstat_uvel_mean            =   4.0547232206987E+00
(PID.TID 0000.0001) %MON dynstat_uvel_sd              =   1.0389245598600E+01
(PID.TID 0000.0001) %MON dynstat_uvel_del2            =   6.6720875872095E-01
(PID.TID 0000.0001) %MON dynstat_vvel_max             =   2.1759137082661E+01
(PID.TID 0000.0001) %MON dynstat_vvel_min             =  -3.8650923513136E+01
(PID.TID 0000.0001) %MON dynstat_vvel_mean            =  -6.0027419544997E-03
(PID.TID 0000.0001) %MON dynstat_vvel_sd              =   4.3196336611138E+00
(PID.TID 0000.0001) %MON dynstat_vvel_del2            =   3.3803543708990E-01
(PID.TID 0000.0001) %MON dynstat_wvel_max             =   7.6419911264873E-01
(PID.TID 0000.0001) %MON dynstat_wvel_min             =  -2.0367085335254E+00
(PID.TID 0000.0001) %MON dynstat_wvel_mean            =   2.7436995456119E-18
(PID.TID 0000.0001) %MON dynstat_wvel_sd              =   9.9877533797779E-02
(PID.TID 0000.0001) %MON dynstat_wvel_del2            =   1.0808731601422E-02
(PID.TID 0000.0001) %MON dynstat_theta_max            =   4.5737022373037E+02
(PID.TID 0000.0001) %MON dynstat_theta_min            =   3.0678844574030E+02
(PID.TID 0000.0001) %MON dynstat_theta_mean           =   3.6632340476453E+02
(PID.TID 0000.0001) %MON dynstat_theta_sd             =   3.6653090366406E+01
(PID.TID 0000.0001) %MON dynstat_theta_del2           =   2.5647334814214E-01
(PID.TID 0000.0001) %MON dynstat_salt_max             =   5.8426177085417E+01
(PID.TID 0000.0001) %MON dynstat_salt_min             =  -5.4780129073342E+00
(PID.TID 0000.0001) %MON dynstat_salt_mean            =   1.2319509812719E+01
(PID.TID 0000.0001) %MON dynstat_salt_sd              =   1.0794851272029E+01
(PID.TID 0000.0001) %MON dynstat_salt_del2            =   2.4262822812568E-01
(PID.TID 0000.0001) %MON advcfl_uvel_max              =   8.5841388020482E-02
(PID.TID 0000.0001) %MON advcfl_vvel_max              =   7.4165477059907E-02
(PID.TID 0000.0001) %MON advcfl_wvel_max              =   5.8042988420672E-02
(PID.TID 0000.0001) %MON advcfl_W_hf_max              =   5.8042988420672E-02
(PID.TID 0000.0001) %MON ke_max                       =   1.0556721337019E+03
(PID.TID 0000.0001) %MON ke_mean                      =   7.1339998426342E+01
(PID.TID 0000.0001) %MON ke_volint                    =   1.9409866957685E+21
(PID.TID 0000.0001) %MON ke_volmean                   =   7.1151159189050E+01
(PID.TID 0000.0001) // =======================================================
(PID.TID 0000.0001) // End MONITOR dynamic field statistics
(PID.TID 0000.0001) // =======================================================
(PID.TID 0000.0001)  Seconds in section "ALL                [THE_MODEL_MAIN]":
(PID.TID 0000.0001)          User time:   6.319999694824219
(PID.TID 0000.0001)        System time:  0.1899999883025885
(PID.TID 0000.0001)    Wall clock time:   6.559832930564880
(PID.TID 0000.0001)         No. starts:           1
(PID.TID 0000.0001)          No. stops:           1
(PID.TID 0000.0001)  Seconds in section "INITIALISE_FIXED   [THE_MODEL_MAIN]":
(PID.TID 0000.0001)          User time:  0.1299999952316284
(PID.TID 0000.0001)        System time:  1.9999999552965164E-002
(PID.TID 0000.0001)    Wall clock time:  0.1533799171447754
(PID.TID 0000.0001)         No. starts:           1
(PID.TID 0000.0001)          No. stops:           1
(PID.TID 0000.0001)  Seconds in section "THE_MAIN_LOOP      [THE_MODEL_MAIN]":
(PID.TID 0000.0001)          User time:   6.159999966621399
(PID.TID 0000.0001)        System time:  0.1599999982863665
(PID.TID 0000.0001)    Wall clock time:   6.369825005531311
(PID.TID 0000.0001)         No. starts:           1
(PID.TID 0000.0001)          No. stops:           1
(PID.TID 0000.0001)  Seconds in section "INITIALISE_VARIA    [THE_MAIN_LOOP]":
(PID.TID 0000.0001)          User time:  4.9999997019767761E-002
(PID.TID 0000.0001)        System time:  4.0000000968575478E-002
(PID.TID 0000.0001)    Wall clock time:  0.1378700733184814
(PID.TID 0000.0001)         No. starts:           1
(PID.TID 0000.0001)          No. stops:           1
(PID.TID 0000.0001)  Seconds in section "WRITE_STATE         [THE_MAIN_LOOP]":
(PID.TID 0000.0001)          User time:  0.0000000000000000E+000
(PID.TID 0000.0001)        System time:  9.9999979138374329E-003
(PID.TID 0000.0001)    Wall clock time:  1.5758991241455078E-002
(PID.TID 0000.0001)         No. starts:           1
(PID.TID 0000.0001)          No. stops:           1
(PID.TID 0000.0001)  Seconds in section "MONITOR             [THE_MAIN_LOOP]":
(PID.TID 0000.0001)          User time:  4.9999997019767761E-002
(PID.TID 0000.0001)        System time:  0.0000000000000000E+000
(PID.TID 0000.0001)    Wall clock time:  4.8969984054565430E-002
(PID.TID 0000.0001)         No. starts:           1
(PID.TID 0000.0001)          No. stops:           1
(PID.TID 0000.0001)  Seconds in section "MAIN LOOP           [THE_MAIN_LOOP]":
(PID.TID 0000.0001)          User time:   6.059999972581863
(PID.TID 0000.0001)        System time:  0.1099999994039536
(PID.TID 0000.0001)    Wall clock time:   6.166283011436462
(PID.TID 0000.0001)         No. starts:           1
(PID.TID 0000.0001)          No. stops:           1
(PID.TID 0000.0001)  Seconds in section "FORWARD_STEP        [THE_MAIN_LOOP]":
(PID.TID 0000.0001)          User time:   6.059999972581863
(PID.TID 0000.0001)        System time:  0.1099999994039536
(PID.TID 0000.0001)    Wall clock time:   6.164307951927185
(PID.TID 0000.0001)         No. starts:          10
(PID.TID 0000.0001)          No. stops:          10
(PID.TID 0000.0001)  Seconds in section "EXTERNAL_FIELDS_LOAD[THE_MAIN_LOOP]":
(PID.TID 0000.0001)          User time:  0.0000000000000000E+000
(PID.TID 0000.0001)        System time:  0.0000000000000000E+000
(PID.TID 0000.0001)    Wall clock time:  1.8018484115600586E-003
(PID.TID 0000.0001)         No. starts:          10
(PID.TID 0000.0001)          No. stops:          10
(PID.TID 0000.0001)  Seconds in section "THERMODYNAMICS      [THE_MAIN_LOOP]":
(PID.TID 0000.0001)          User time:   2.719999521970749
(PID.TID 0000.0001)        System time:  6.9999992847442627E-002
(PID.TID 0000.0001)    Wall clock time:   2.758479952812195
(PID.TID 0000.0001)         No. starts:          10
(PID.TID 0000.0001)          No. stops:          10
(PID.TID 0000.0001)  Seconds in section "AIM_DO_ATMOS_PHYS      [DYNAMICS]":
(PID.TID 0000.0001)          User time:   1.709999531507492
(PID.TID 0000.0001)        System time:  4.9999997019767761E-002
(PID.TID 0000.0001)    Wall clock time:   1.777000069618225
(PID.TID 0000.0001)         No. starts:          10
(PID.TID 0000.0001)          No. stops:          10
(PID.TID 0000.0001)  Seconds in section "DYNAMICS            [THE_MAIN_LOOP]":
(PID.TID 0000.0001)          User time:   1.379999518394470
(PID.TID 0000.0001)        System time:  2.0000010728836060E-002
(PID.TID 0000.0001)    Wall clock time:   1.409163951873779
(PID.TID 0000.0001)         No. starts:          10
(PID.TID 0000.0001)          No. stops:          10
(PID.TID 0000.0001)  Seconds in section "SOLVE_FOR_PRESSURE  [THE_MAIN_LOOP]":
(PID.TID 0000.0001)          User time:  0.3300005197525024
(PID.TID 0000.0001)        System time:  0.0000000000000000E+000
(PID.TID 0000.0001)    Wall clock time:  0.3367640972137451
(PID.TID 0000.0001)         No. starts:          10
(PID.TID 0000.0001)          No. stops:          10
(PID.TID 0000.0001)  Seconds in section "THE_CORRECTION_STEP [THE_MAIN_LOOP]":
(PID.TID 0000.0001)          User time:  0.6999998688697815
(PID.TID 0000.0001)        System time:  9.9999904632568359E-003
(PID.TID 0000.0001)    Wall clock time:  0.7113150358200073
(PID.TID 0000.0001)         No. starts:          10
(PID.TID 0000.0001)          No. stops:          10
(PID.TID 0000.0001)  Seconds in section "BLOCKING_EXCHANGES  [THE_MAIN_LOOP]":
(PID.TID 0000.0001)          User time:  9.9997520446777344E-003
(PID.TID 0000.0001)        System time:  0.0000000000000000E+000
(PID.TID 0000.0001)    Wall clock time:  2.1787881851196289E-002
(PID.TID 0000.0001)         No. starts:          10
(PID.TID 0000.0001)          No. stops:          10
(PID.TID 0000.0001)  Seconds in section "DO_THE_MODEL_IO     [THE_MAIN_LOOP]":
(PID.TID 0000.0001)          User time:  1.0000228881835938E-002
(PID.TID 0000.0001)        System time:  1.0000005364418030E-002
(PID.TID 0000.0001)    Wall clock time:  1.7271995544433594E-002
(PID.TID 0000.0001)         No. starts:          10
(PID.TID 0000.0001)          No. stops:          10
(PID.TID 0000.0001)  Seconds in section "WRITE_CHECKPOINT    [THE_MAIN_LOOP]":
(PID.TID 0000.0001)          User time:  0.0000000000000000E+000
(PID.TID 0000.0001)        System time:  0.0000000000000000E+000
(PID.TID 0000.0001)    Wall clock time:  1.8212795257568359E-003
(PID.TID 0000.0001)         No. starts:          10
(PID.TID 0000.0001)          No. stops:          10
(PID.TID 0000.0001)  Seconds in section "WRITE_CHECKPOINT   [THE_MODEL_MAIN]":
(PID.TID 0000.0001)          User time:  2.9999732971191406E-002
(PID.TID 0000.0001)        System time:  9.9999904632568359E-003
(PID.TID 0000.0001)    Wall clock time:  3.5503983497619629E-002
(PID.TID 0000.0001)         No. starts:           1
(PID.TID 0000.0001)          No. stops:           1
(PID.TID 0000.0001) // ======================================================
(PID.TID 0000.0001) // Tile <-> Tile communication statistics
(PID.TID 0000.0001) // ======================================================
(PID.TID 0000.0001) // o Tile number: 000001
(PID.TID 0000.0001) //         No. X exchanges =              0
(PID.TID 0000.0001) //            Max. X spins =              0
(PID.TID 0000.0001) //            Min. X spins =     1000000000
(PID.TID 0000.0001) //          Total. X spins =              0
(PID.TID 0000.0001) //            Avg. X spins =       0.00E+00
(PID.TID 0000.0001) //         No. Y exchanges =              0
(PID.TID 0000.0001) //            Max. Y spins =              0
(PID.TID 0000.0001) //            Min. Y spins =     1000000000
(PID.TID 0000.0001) //          Total. Y spins =              0
(PID.TID 0000.0001) //            Avg. Y spins =       0.00E+00
(PID.TID 0000.0001) // o Thread number: 000001
(PID.TID 0000.0001) //            No. barriers =           4932
(PID.TID 0000.0001) //      Max. barrier spins =              1
(PID.TID 0000.0001) //      Min. barrier spins =              1
(PID.TID 0000.0001) //     Total barrier spins =           4932
(PID.TID 0000.0001) //      Avg. barrier spins =       1.00E+00
