(PID.TID 0000.0001) 
(PID.TID 0000.0001) // ======================================================
(PID.TID 0000.0001) //                      MITgcm UV
(PID.TID 0000.0001) //                      =========
(PID.TID 0000.0001) // ======================================================
(PID.TID 0000.0001) // execution environment starting up...
(PID.TID 0000.0001) // Run starting Wed Apr  1 14:19:48 1998
(PID.TID 0000.0001) // on melville.lcs.mit.edu
(PID.TID 0000.0001) // account cnh
(PID.TID 0000.0001) // MITgcm UV Release: $Name:  $
(PID.TID 0000.0001) 
(PID.TID 0000.0001) // =======================================================
(PID.TID 0000.0001) // Execution Environment parameter file "eedata"
(PID.TID 0000.0001) // =======================================================
(PID.TID 0000.0001) ># Example "eedata" file
(PID.TID 0000.0001) ># Lines beginning "#" are comments
(PID.TID 0000.0001) ># nTx - No. threads per process in X
(PID.TID 0000.0001) ># nTy - No. threads per process in Y
(PID.TID 0000.0001) > &EEPARMS
(PID.TID 0000.0001) > &
(PID.TID 0000.0001) ># Note: Some systems use & as the
(PID.TID 0000.0001) ># namelist terminator. Other systems
(PID.TID 0000.0001) ># use a / character (as shown here).
(PID.TID 0000.0001) 
(PID.TID 0000.0001) // =======================================================
(PID.TID 0000.0001) // Computational Grid Specification ( see files "SIZE.h" )
(PID.TID 0000.0001) //                                  ( and "eedata"       )
(PID.TID 0000.0001) // =======================================================
(PID.TID 0000.0001)      nPx =    1 ; /* No. processes in X */
(PID.TID 0000.0001)      nPy =    1 ; /* No. processes in Y */
(PID.TID 0000.0001)      nSx =    1 ; /* No. tiles in X per process */
(PID.TID 0000.0001)      nSy =    1 ; /* No. tiles in Y per process */
(PID.TID 0000.0001)      sNx =  128 ; /* Tile size in X */
(PID.TID 0000.0001)      sNy =   23 ; /* Tile size in Y */
(PID.TID 0000.0001)      OLx =    3 ; /* Tile overlap distance in X */
(PID.TID 0000.0001)      OLy =    3 ; /* Tile overlap distance in Y */
(PID.TID 0000.0001)      nTx =    1 ; /* No. threads in X per process */
(PID.TID 0000.0001)      nTy =    1 ; /* No. threads in Y per process */
(PID.TID 0000.0001)       Nr =    5 ; /* No. levels in the vertical   */
(PID.TID 0000.0001)       nX =  128 ; /* Total domain size in X ( = nPx*nSx*sNx ) */
(PID.TID 0000.0001)       nY =   23 ; /* Total domain size in Y ( = nPy*nSy*sNy ) */
(PID.TID 0000.0001)   nTiles =    1 ; /* Total no. tiles per process ( = nSx*nSy ) */
(PID.TID 0000.0001)   nProcs =    1 ; /* Total no. processes ( = nPx*nPy ) */
(PID.TID 0000.0001) nThreads =    1 ; /* Total no. threads per process ( = nTx*nTy ) */
(PID.TID 0000.0001) usingMPI =    F ; /* Flag used to control whether MPI is in use */
(PID.TID 0000.0001)                   /*  note: To execute a program with MPI calls */
(PID.TID 0000.0001)                   /*  it must be launched appropriately e.g     */
(PID.TID 0000.0001)                   /*  "mpirun -np 64 ......"                    */
(PID.TID 0000.0001) 
(PID.TID 0000.0001) // ======================================================
(PID.TID 0000.0001) // Mapping of tiles to threads
(PID.TID 0000.0001) // ======================================================
(PID.TID 0000.0001) // -o- Thread   1, tiles (   1:   1,   1:   1)
(PID.TID 0000.0001) 
(PID.TID 0000.0001) // ======================================================
(PID.TID 0000.0001) // Tile <-> Tile connectvity table
(PID.TID 0000.0001) // ======================================================
(PID.TID 0000.0001) // Tile number: 000001 (process no. = 000001)
(PID.TID 0000.0001) //        WEST: Tile = 000001, Process = 000001, Comm = put
(PID.TID 0000.0001) //                bi = 000001, bj = 000001
(PID.TID 0000.0001) //        EAST: Tile = 000001, Process = 000001, Comm = put
(PID.TID 0000.0001) //                bi = 000001, bj = 000001
(PID.TID 0000.0001) //       SOUTH: Tile = 000001, Process = 000001, Comm = put
(PID.TID 0000.0001) //                bi = 000001, bj = 000001
(PID.TID 0000.0001) //       NORTH: Tile = 000001, Process = 000001, Comm = put
(PID.TID 0000.0001) //                bi = 000001, bj = 000001
(PID.TID 0000.0001) 
(PID.TID 0000.0001) // =======================================================
(PID.TID 0000.0001) // Model parameter file "data"
(PID.TID 0000.0001) // =======================================================
(PID.TID 0000.0001) ># ====================
(PID.TID 0000.0001) ># | Model parameters |
(PID.TID 0000.0001) ># ====================
(PID.TID 0000.0001) >#
(PID.TID 0000.0001) ># Continuous equation parameters
(PID.TID 0000.0001) > &PARM01
(PID.TID 0000.0001) > tRef=281.089, 289.321, 307.191, 331.377, 432.413,
(PID.TID 0000.0001) > sRef=5*0.,
(PID.TID 0000.0001) > viscAr=1.E3,
(PID.TID 0000.0001) > viscAh=0.E6,
(PID.TID 0000.0001) > viscA4=0.E17,
(PID.TID 0000.0001) > no_slip_sides=.FALSE.,
(PID.TID 0000.0001) > no_slip_bottom=.FALSE.,
(PID.TID 0000.0001) > diffKhT=0.E3,
(PID.TID 0000.0001) > diffKrT=0.,
(PID.TID 0000.0001) > diffK4T=0.E17,
(PID.TID 0000.0001) > diffKrS=0.E2,
(PID.TID 0000.0001) > diffKhS=0.E3,
(PID.TID 0000.0001) > diffK4S=0.E17,
(PID.TID 0000.0001) > buoyancyRelation='ATMOSPHERIC',
(PID.TID 0000.0001) > eosType='IDEALGAS',
(PID.TID 0000.0001) > gravity=9.81,
(PID.TID 0000.0001) > rhonil=1.0,
(PID.TID 0000.0001) > rhoConst=1.0,
(PID.TID 0000.0001) > rigidLid=.FALSE.,
(PID.TID 0000.0001) > implicitFreeSurface=.TRUE.,
(PID.TID 0000.0001) > exactConserv=.TRUE.,
(PID.TID 0000.0001) > staggerTimeStep=.TRUE.,
(PID.TID 0000.0001) > nonHydrostatic=.FALSE.,
(PID.TID 0000.0001) > readBinaryPrec=64,
(PID.TID 0000.0001) > writeBinaryPrec=64,
(PID.TID 0000.0001) > hFacMin=1.0,
(PID.TID 0000.0001) > saltAdvScheme=3,
(PID.TID 0000.0001) > &
(PID.TID 0000.0001) >
(PID.TID 0000.0001) ># Elliptic solver parameters
(PID.TID 0000.0001) > &PARM02
(PID.TID 0000.0001) > cg2dMaxIters=200,
(PID.TID 0000.0001) >#cg2dTargetResidual=1.E-12,
(PID.TID 0000.0001) > cg2dTargetResWunit=1.E-18,
(PID.TID 0000.0001) > &
(PID.TID 0000.0001) >
(PID.TID 0000.0001) ># Time stepping parameters
(PID.TID 0000.0001) > &PARM03
(PID.TID 0000.0001) > niter0=8640,
(PID.TID 0000.0001) > nTimeSteps=10,
(PID.TID 0000.0001) >#endTime=31104000.,
(PID.TID 0000.0001) > deltaT=600.0,
(PID.TID 0000.0001) > forcing_In_AB=.FALSE.,
(PID.TID 0000.0001) > abEps=0.1,
(PID.TID 0000.0001) > cAdjFreq=0.,
(PID.TID 0000.0001) > pChkptFreq=2592000.0,
(PID.TID 0000.0001) > chkptFreq=0.0,
(PID.TID 0000.0001) > dumpFreq=2592000.0,
(PID.TID 0000.0001) > taveFreq=2592000.0,
(PID.TID 0000.0001) >#monitorFreq=7200.0,
(PID.TID 0000.0001) > monitorFreq=1.0,
(PID.TID 0000.0001) > &
(PID.TID 0000.0001) >
(PID.TID 0000.0001) ># Gridding parameters
(PID.TID 0000.0001) > &PARM04
(PID.TID 0000.0001) > usingCartesianGrid=.FALSE.,
(PID.TID 0000.0001) > usingSphericalPolarGrid=.TRUE.,
(PID.TID 0000.0001) > delX=128*2.8125,
(PID.TID 0000.0001) > delY=23*2.8125,
(PID.TID 0000.0001) > delR=1.E4, 2.5E4, 3.E4, 2.E4, 1.5E4,
(PID.TID 0000.0001) > Ro_SeaLevel=1.E5,
(PID.TID 0000.0001) > groundAtK1=.TRUE.,
(PID.TID 0000.0001) > phiMin=-32.34375,
(PID.TID 0000.0001) > rSphere=6370.E3,
(PID.TID 0000.0001) > &
(PID.TID 0000.0001) >
(PID.TID 0000.0001) ># Input datasets
(PID.TID 0000.0001) > &PARM05
(PID.TID 0000.0001) > &
(PID.TID 0000.0001) 
(PID.TID 0000.0001) S/R INI_PARMS ; read PARM01 : OK
(PID.TID 0000.0001) S/R INI_PARMS ; read PARM02 : OK
(PID.TID 0000.0001) S/R INI_PARMS ; read PARM03 : OK
(PID.TID 0000.0001) S/R INI_PARMS ; read PARM04 : OK
(PID.TID 0000.0001) S/R INI_PARMS ; read PARM05 : OK
(PID.TID 0000.0001) %MON XC_max                       =   3.5859375000000E+02
(PID.TID 0000.0001) %MON XC_min                       =   1.4062500000000E+00
(PID.TID 0000.0001) %MON XC_mean                      =   1.8000000000000E+02
(PID.TID 0000.0001) %MON XC_sd                        =   1.0391987692599E+02
(PID.TID 0000.0001) %MON XG_max                       =   3.5718750000000E+02
(PID.TID 0000.0001) %MON XG_min                       =   2.8125000000000E+00
(PID.TID 0000.0001) %MON XG_mean                      =   1.8000000000000E+02
(PID.TID 0000.0001) %MON XG_sd                        =   1.0310795313651E+02
(PID.TID 0000.0001) %MON DXC_max                      =   3.1268664380261E+05
(PID.TID 0000.0001) %MON DXC_min                      =   2.6820028035446E+05
(PID.TID 0000.0001) %MON DXC_mean                     =   2.9637191437594E+05
(PID.TID 0000.0001) %MON DXC_sd                       =   1.4453062273565E+04
(PID.TID 0000.0001) %MON DXF_max                      =   3.1268664380261E+05
(PID.TID 0000.0001) %MON DXF_min                      =   2.6820028035446E+05
(PID.TID 0000.0001) %MON DXF_mean                     =   2.9637191437594E+05
(PID.TID 0000.0001) %MON DXF_sd                       =   1.4453062273565E+04
(PID.TID 0000.0001) %MON DXG_max                      =   3.1259246843155E+05
(PID.TID 0000.0001) %MON DXG_min                      =   2.6417442582260E+05
(PID.TID 0000.0001) %MON DXG_mean                     =   2.9628265269637E+05
(PID.TID 0000.0001) %MON DXG_sd                       =   1.4650049182776E+04
(PID.TID 0000.0001) %MON DXV_max                      =   3.1259246843155E+05
(PID.TID 0000.0001) %MON DXV_min                      =   2.6417442582260E+05
(PID.TID 0000.0001) %MON DXV_mean                     =   2.9628265269637E+05
(PID.TID 0000.0001) %MON DXV_sd                       =   1.4650049182776E+04
(PID.TID 0000.0001) %MON YC_max                       =   3.0937500000000E+01
(PID.TID 0000.0001) %MON YC_min                       =  -3.0937500000000E+01
(PID.TID 0000.0001) %MON YC_mean                      =   0.0000000000000E+00
(PID.TID 0000.0001) %MON YC_sd                        =   1.9075303077540E+01
(PID.TID 0000.0001) %MON YG_max                       =   2.9531250000000E+01
(PID.TID 0000.0001) %MON YG_min                       =  -3.2343750000000E+01
(PID.TID 0000.0001) %MON YG_mean                      =  -1.4062500000000E+00
(PID.TID 0000.0001) %MON YG_sd                        =   1.8656014445749E+01
(PID.TID 0000.0001) %MON DYC_max                      =   3.1268664380261E+05
(PID.TID 0000.0001) %MON DYC_min                      =   3.1268664380261E+05
(PID.TID 0000.0001) %MON DYC_mean                     =   3.1268664380262E+05
(PID.TID 0000.0001) %MON DYC_sd                       =   7.2177499532700E-09
(PID.TID 0000.0001) %MON DYF_max                      =   3.1268664380261E+05
(PID.TID 0000.0001) %MON DYF_min                      =   3.1268664380261E+05
(PID.TID 0000.0001) %MON DYF_mean                     =   3.1268664380262E+05
(PID.TID 0000.0001) %MON DYF_sd                       =   7.2177499532700E-09
(PID.TID 0000.0001) %MON DYG_max                      =   3.1268664380261E+05
(PID.TID 0000.0001) %MON DYG_min                      =   3.1268664380261E+05
(PID.TID 0000.0001) %MON DYG_mean                     =   3.1268664380262E+05
(PID.TID 0000.0001) %MON DYG_sd                       =   7.2177499532700E-09
(PID.TID 0000.0001) %MON DYU_max                      =   3.1268664380261E+05
(PID.TID 0000.0001) %MON DYU_min                      =   3.1268664380261E+05
(PID.TID 0000.0001) %MON DYU_mean                     =   3.1268664380262E+05
(PID.TID 0000.0001) %MON DYU_sd                       =   7.2177499532700E-09
(PID.TID 0000.0001) %MON RA_max                       =   9.7763121221868E+10
(PID.TID 0000.0001) %MON RA_min                       =   8.3854226074921E+10
(PID.TID 0000.0001) %MON RA_mean                      =   9.2662235391748E+10
(PID.TID 0000.0001) %MON RA_sd                        =   4.5188258183799E+09
(PID.TID 0000.0001) %MON RAW_max                      =   9.7763121221868E+10
(PID.TID 0000.0001) %MON RAW_min                      =   8.3854226074921E+10
(PID.TID 0000.0001) %MON RAW_mean                     =   9.2662235391748E+10
(PID.TID 0000.0001) %MON RAW_sd                       =   4.5188258183799E+09
(PID.TID 0000.0001) %MON RAS_max                      =   9.7733676797555E+10
(PID.TID 0000.0001) %MON RAS_min                      =   8.2595521514235E+10
(PID.TID 0000.0001) %MON RAS_mean                     =   9.2634327258881E+10
(PID.TID 0000.0001) %MON RAS_sd                       =   4.5804148099979E+09
(PID.TID 0000.0001) %MON RAZ_max                      =   9.7733676797555E+10
(PID.TID 0000.0001) %MON RAZ_min                      =   8.2595521514235E+10
(PID.TID 0000.0001) %MON RAZ_mean                     =   9.2634327258881E+10
(PID.TID 0000.0001) %MON RAZ_sd                       =   4.5804148099979E+09
(PID.TID 0000.0001) // =======================================================
(PID.TID 0000.0001) // Field Model R_low (ini_masks_etc) at iteration          1
(PID.TID 0000.0001) // CMIN =          1.000000000000000E+32
(PID.TID 0000.0001) // CMAX =         -1.000000000000000E+32
(PID.TID 0000.0001) // CINT =          0.000000000000000E+00
(PID.TID 0000.0001) // SYMBOLS (CMIN->CMAX): -abcdefghijklmnopqrstuvwxyz+
(PID.TID 0000.0001) //                  0.0: .
(PID.TID 0000.0001) // RANGE I (Lo:Hi:Step):(  -2: 131:   1)
(PID.TID 0000.0001) // RANGE J (Lo:Hi:Step):(  26:  -2:  -1)
(PID.TID 0000.0001) // RANGE K (Lo:Hi:Step):(   1:   1:   1)
(PID.TID 0000.0001) // =======================================================
(PID.TID 0000.0001) K =   1
(PID.TID 0000.0001) //                I=7       I=17      I=27      I=37      I=47      I=57      I=67      I=77      I=87      I=97      I=107     I=117     I=127
(PID.TID 0000.0001) // |--J--|**0123456|890123456|890123456|890123456|890123456|890123456|890123456|890123456|890123456|890123456|890123456|890123456|890123456|8901
(PID.TID 0000.0001) //     26 ......................................................................................................................................
(PID.TID 0000.0001) //     25 ......................................................................................................................................
(PID.TID 0000.0001) //     24 ......................................................................................................................................
(PID.TID 0000.0001) //     23 ......................................................................................................................................
(PID.TID 0000.0001) //     22 ......................................................................................................................................
(PID.TID 0000.0001) //     21 ......................................................................................................................................
(PID.TID 0000.0001) //     20 ......................................................................................................................................
(PID.TID 0000.0001) //     19 ......................................................................................................................................
(PID.TID 0000.0001) //     18 ......................................................................................................................................
(PID.TID 0000.0001) //     17 ......................................................................................................................................
(PID.TID 0000.0001) //     16 ......................................................................................................................................
(PID.TID 0000.0001) //     15 ......................................................................................................................................
(PID.TID 0000.0001) //     14 ......................................................................................................................................
(PID.TID 0000.0001) //     13 ......................................................................................................................................
(PID.TID 0000.0001) //     12 ......................................................................................................................................
(PID.TID 0000.0001) //     11 ......................................................................................................................................
(PID.TID 0000.0001) //     10 ......................................................................................................................................
(PID.TID 0000.0001) //      9 ......................................................................................................................................
(PID.TID 0000.0001) //      8 ......................................................................................................................................
(PID.TID 0000.0001) //      7 ......................................................................................................................................
(PID.TID 0000.0001) //      6 ......................................................................................................................................
(PID.TID 0000.0001) //      5 ......................................................................................................................................
(PID.TID 0000.0001) //      4 ......................................................................................................................................
(PID.TID 0000.0001) //      3 ......................................................................................................................................
(PID.TID 0000.0001) //      2 ......................................................................................................................................
(PID.TID 0000.0001) //      1 ......................................................................................................................................
(PID.TID 0000.0001) //      0 ......................................................................................................................................
(PID.TID 0000.0001) //     -1 ......................................................................................................................................
(PID.TID 0000.0001) //     -2 ......................................................................................................................................
(PID.TID 0000.0001) // =======================================================
(PID.TID 0000.0001) // END OF FIELD                                          =
(PID.TID 0000.0001) // =======================================================
(PID.TID 0000.0001) 
(PID.TID 0000.0001) // =======================================================
(PID.TID 0000.0001) // Field Model Ro_surf (ini_masks_etc) at iteration          1
(PID.TID 0000.0001) // CMIN =          1.000000000000000E+05
(PID.TID 0000.0001) // CMAX =          1.000000000000000E+05
(PID.TID 0000.0001) // CINT =          0.000000000000000E+00
(PID.TID 0000.0001) // SYMBOLS (CMIN->CMAX): -abcdefghijklmnopqrstuvwxyz+
(PID.TID 0000.0001) //                  0.0: .
(PID.TID 0000.0001) // RANGE I (Lo:Hi:Step):(  -2: 131:   1)
(PID.TID 0000.0001) // RANGE J (Lo:Hi:Step):(  26:  -2:  -1)
(PID.TID 0000.0001) // RANGE K (Lo:Hi:Step):(   1:   1:   1)
(PID.TID 0000.0001) // =======================================================
(PID.TID 0000.0001) K =   1
(PID.TID 0000.0001) //                I=7       I=17      I=27      I=37      I=47      I=57      I=67      I=77      I=87      I=97      I=107     I=117     I=127
(PID.TID 0000.0001) // |--J--|**0123456|890123456|890123456|890123456|890123456|890123456|890123456|890123456|890123456|890123456|890123456|890123456|890123456|8901
(PID.TID 0000.0001) //     26 ......................................................................................................................................
(PID.TID 0000.0001) //     25 ......................................................................................................................................
(PID.TID 0000.0001) //     24 ......................................................................................................................................
(PID.TID 0000.0001) //     23 --------------------------------------------------------------------------------------------------------------------------------------
(PID.TID 0000.0001) //     22 --------------------------------------------------------------------------------------------------------------------------------------
(PID.TID 0000.0001) //     21 --------------------------------------------------------------------------------------------------------------------------------------
(PID.TID 0000.0001) //     20 --------------------------------------------------------------------------------------------------------------------------------------
(PID.TID 0000.0001) //     19 --------------------------------------------------------------------------------------------------------------------------------------
(PID.TID 0000.0001) //     18 --------------------------------------------------------------------------------------------------------------------------------------
(PID.TID 0000.0001) //     17 --------------------------------------------------------------------------------------------------------------------------------------
(PID.TID 0000.0001) //     16 --------------------------------------------------------------------------------------------------------------------------------------
(PID.TID 0000.0001) //     15 --------------------------------------------------------------------------------------------------------------------------------------
(PID.TID 0000.0001) //     14 --------------------------------------------------------------------------------------------------------------------------------------
(PID.TID 0000.0001) //     13 --------------------------------------------------------------------------------------------------------------------------------------
(PID.TID 0000.0001) //     12 --------------------------------------------------------------------------------------------------------------------------------------
(PID.TID 0000.0001) //     11 --------------------------------------------------------------------------------------------------------------------------------------
(PID.TID 0000.0001) //     10 --------------------------------------------------------------------------------------------------------------------------------------
(PID.TID 0000.0001) //      9 --------------------------------------------------------------------------------------------------------------------------------------
(PID.TID 0000.0001) //      8 --------------------------------------------------------------------------------------------------------------------------------------
(PID.TID 0000.0001) //      7 --------------------------------------------------------------------------------------------------------------------------------------
(PID.TID 0000.0001) //      6 --------------------------------------------------------------------------------------------------------------------------------------
(PID.TID 0000.0001) //      5 --------------------------------------------------------------------------------------------------------------------------------------
(PID.TID 0000.0001) //      4 --------------------------------------------------------------------------------------------------------------------------------------
(PID.TID 0000.0001) //      3 --------------------------------------------------------------------------------------------------------------------------------------
(PID.TID 0000.0001) //      2 --------------------------------------------------------------------------------------------------------------------------------------
(PID.TID 0000.0001) //      1 --------------------------------------------------------------------------------------------------------------------------------------
(PID.TID 0000.0001) //      0 ......................................................................................................................................
(PID.TID 0000.0001) //     -1 ......................................................................................................................................
(PID.TID 0000.0001) //     -2 ......................................................................................................................................
(PID.TID 0000.0001) // =======================================================
(PID.TID 0000.0001) // END OF FIELD                                          =
(PID.TID 0000.0001) // =======================================================
(PID.TID 0000.0001) 
(PID.TID 0000.0001) // =======================================================
(PID.TID 0000.0001) // Field hFacC at iteration          1
(PID.TID 0000.0001) // CMIN =          1.000000000000000E+00
(PID.TID 0000.0001) // CMAX =          1.000000000000000E+00
(PID.TID 0000.0001) // CINT =          0.000000000000000E+00
(PID.TID 0000.0001) // SYMBOLS (CMIN->CMAX): -abcdefghijklmnopqrstuvwxyz+
(PID.TID 0000.0001) //                  0.0: .
(PID.TID 0000.0001) // RANGE I (Lo:Hi:Step):(  -2: 131:   1)
(PID.TID 0000.0001) // RANGE J (Lo:Hi:Step):(  26:  -2:  -1)
(PID.TID 0000.0001) // RANGE K (Lo:Hi:Step):(   1:   1:   1)
(PID.TID 0000.0001) // =======================================================
(PID.TID 0000.0001) K =   1
(PID.TID 0000.0001) //                I=7       I=17      I=27      I=37      I=47      I=57      I=67      I=77      I=87      I=97      I=107     I=117     I=127
(PID.TID 0000.0001) // |--J--|**0123456|890123456|890123456|890123456|890123456|890123456|890123456|890123456|890123456|890123456|890123456|890123456|890123456|8901
(PID.TID 0000.0001) //     26 ......................................................................................................................................
(PID.TID 0000.0001) //     25 ......................................................................................................................................
(PID.TID 0000.0001) //     24 ......................................................................................................................................
(PID.TID 0000.0001) //     23 --------------------------------------------------------------------------------------------------------------------------------------
(PID.TID 0000.0001) //     22 --------------------------------------------------------------------------------------------------------------------------------------
(PID.TID 0000.0001) //     21 --------------------------------------------------------------------------------------------------------------------------------------
(PID.TID 0000.0001) //     20 --------------------------------------------------------------------------------------------------------------------------------------
(PID.TID 0000.0001) //     19 --------------------------------------------------------------------------------------------------------------------------------------
(PID.TID 0000.0001) //     18 --------------------------------------------------------------------------------------------------------------------------------------
(PID.TID 0000.0001) //     17 --------------------------------------------------------------------------------------------------------------------------------------
(PID.TID 0000.0001) //     16 --------------------------------------------------------------------------------------------------------------------------------------
(PID.TID 0000.0001) //     15 --------------------------------------------------------------------------------------------------------------------------------------
(PID.TID 0000.0001) //     14 --------------------------------------------------------------------------------------------------------------------------------------
(PID.TID 0000.0001) //     13 --------------------------------------------------------------------------------------------------------------------------------------
(PID.TID 0000.0001) //     12 --------------------------------------------------------------------------------------------------------------------------------------
(PID.TID 0000.0001) //     11 --------------------------------------------------------------------------------------------------------------------------------------
(PID.TID 0000.0001) //     10 --------------------------------------------------------------------------------------------------------------------------------------
(PID.TID 0000.0001) //      9 --------------------------------------------------------------------------------------------------------------------------------------
(PID.TID 0000.0001) //      8 --------------------------------------------------------------------------------------------------------------------------------------
(PID.TID 0000.0001) //      7 --------------------------------------------------------------------------------------------------------------------------------------
(PID.TID 0000.0001) //      6 --------------------------------------------------------------------------------------------------------------------------------------
(PID.TID 0000.0001) //      5 --------------------------------------------------------------------------------------------------------------------------------------
(PID.TID 0000.0001) //      4 --------------------------------------------------------------------------------------------------------------------------------------
(PID.TID 0000.0001) //      3 --------------------------------------------------------------------------------------------------------------------------------------
(PID.TID 0000.0001) //      2 --------------------------------------------------------------------------------------------------------------------------------------
(PID.TID 0000.0001) //      1 --------------------------------------------------------------------------------------------------------------------------------------
(PID.TID 0000.0001) //      0 ......................................................................................................................................
(PID.TID 0000.0001) //     -1 ......................................................................................................................................
(PID.TID 0000.0001) //     -2 ......................................................................................................................................
(PID.TID 0000.0001) // =======================================================
(PID.TID 0000.0001) // END OF FIELD                                          =
(PID.TID 0000.0001) // =======================================================
(PID.TID 0000.0001) 
(PID.TID 0000.0001) // =======================================================
(PID.TID 0000.0001) // Field hFacW at iteration          1
(PID.TID 0000.0001) // CMIN =          1.000000000000000E+00
(PID.TID 0000.0001) // CMAX =          1.000000000000000E+00
(PID.TID 0000.0001) // CINT =          0.000000000000000E+00
(PID.TID 0000.0001) // SYMBOLS (CMIN->CMAX): -abcdefghijklmnopqrstuvwxyz+
(PID.TID 0000.0001) //                  0.0: .
(PID.TID 0000.0001) // RANGE I (Lo:Hi:Step):(  -2: 131:   1)
(PID.TID 0000.0001) // RANGE J (Lo:Hi:Step):(  26:  -2:  -1)
(PID.TID 0000.0001) // RANGE K (Lo:Hi:Step):(   1:   1:   1)
(PID.TID 0000.0001) // =======================================================
(PID.TID 0000.0001) K =   1
(PID.TID 0000.0001) //                I=7       I=17      I=27      I=37      I=47      I=57      I=67      I=77      I=87      I=97      I=107     I=117     I=127
(PID.TID 0000.0001) // |--J--|**0123456|890123456|890123456|890123456|890123456|890123456|890123456|890123456|890123456|890123456|890123456|890123456|890123456|8901
(PID.TID 0000.0001) //     26 --------------------------------------------------------------------------------------------------------------------------------------
(PID.TID 0000.0001) //     25 --------------------------------------------------------------------------------------------------------------------------------------
(PID.TID 0000.0001) //     24 --------------------------------------------------------------------------------------------------------------------------------------
(PID.TID 0000.0001) //     23 --------------------------------------------------------------------------------------------------------------------------------------
(PID.TID 0000.0001) //     22 --------------------------------------------------------------------------------------------------------------------------------------
(PID.TID 0000.0001) //     21 --------------------------------------------------------------------------------------------------------------------------------------
(PID.TID 0000.0001) //     20 --------------------------------------------------------------------------------------------------------------------------------------
(PID.TID 0000.0001) //     19 --------------------------------------------------------------------------------------------------------------------------------------
(PID.TID 0000.0001) //     18 --------------------------------------------------------------------------------------------------------------------------------------
(PID.TID 0000.0001) //     17 --------------------------------------------------------------------------------------------------------------------------------------
(PID.TID 0000.0001) //     16 --------------------------------------------------------------------------------------------------------------------------------------
(PID.TID 0000.0001) //     15 --------------------------------------------------------------------------------------------------------------------------------------
(PID.TID 0000.0001) //     14 --------------------------------------------------------------------------------------------------------------------------------------
(PID.TID 0000.0001) //     13 --------------------------------------------------------------------------------------------------------------------------------------
(PID.TID 0000.0001) //     12 --------------------------------------------------------------------------------------------------------------------------------------
(PID.TID 0000.0001) //     11 --------------------------------------------------------------------------------------------------------------------------------------
(PID.TID 0000.0001) //     10 --------------------------------------------------------------------------------------------------------------------------------------
(PID.TID 0000.0001) //      9 --------------------------------------------------------------------------------------------------------------------------------------
(PID.TID 0000.0001) //      8 --------------------------------------------------------------------------------------------------------------------------------------
(PID.TID 0000.0001) //      7 --------------------------------------------------------------------------------------------------------------------------------------
(PID.TID 0000.0001) //      6 --------------------------------------------------------------------------------------------------------------------------------------
(PID.TID 0000.0001) //      5 --------------------------------------------------------------------------------------------------------------------------------------
(PID.TID 0000.0001) //      4 --------------------------------------------------------------------------------------------------------------------------------------
(PID.TID 0000.0001) //      3 --------------------------------------------------------------------------------------------------------------------------------------
(PID.TID 0000.0001) //      2 --------------------------------------------------------------------------------------------------------------------------------------
(PID.TID 0000.0001) //      1 --------------------------------------------------------------------------------------------------------------------------------------
(PID.TID 0000.0001) //      0 --------------------------------------------------------------------------------------------------------------------------------------
(PID.TID 0000.0001) //     -1 --------------------------------------------------------------------------------------------------------------------------------------
(PID.TID 0000.0001) //     -2 --------------------------------------------------------------------------------------------------------------------------------------
(PID.TID 0000.0001) // =======================================================
(PID.TID 0000.0001) // END OF FIELD                                          =
(PID.TID 0000.0001) // =======================================================
(PID.TID 0000.0001) 
(PID.TID 0000.0001) // =======================================================
(PID.TID 0000.0001) // Field hFacS at iteration          1
(PID.TID 0000.0001) // CMIN =          1.000000000000000E+00
(PID.TID 0000.0001) // CMAX =          1.000000000000000E+00
(PID.TID 0000.0001) // CINT =          0.000000000000000E+00
(PID.TID 0000.0001) // SYMBOLS (CMIN->CMAX): -abcdefghijklmnopqrstuvwxyz+
(PID.TID 0000.0001) //                  0.0: .
(PID.TID 0000.0001) // RANGE I (Lo:Hi:Step):(  -2: 131:   1)
(PID.TID 0000.0001) // RANGE J (Lo:Hi:Step):(  26:  -2:  -1)
(PID.TID 0000.0001) // RANGE K (Lo:Hi:Step):(   1:   1:   1)
(PID.TID 0000.0001) // =======================================================
(PID.TID 0000.0001) K =   1
(PID.TID 0000.0001) //                I=7       I=17      I=27      I=37      I=47      I=57      I=67      I=77      I=87      I=97      I=107     I=117     I=127
(PID.TID 0000.0001) // |--J--|**0123456|890123456|890123456|890123456|890123456|890123456|890123456|890123456|890123456|890123456|890123456|890123456|890123456|8901
(PID.TID 0000.0001) //     26 --------------------------------------------------------------------------------------------------------------------------------------
(PID.TID 0000.0001) //     25 --------------------------------------------------------------------------------------------------------------------------------------
(PID.TID 0000.0001) //     24 ......................................................................................................................................
(PID.TID 0000.0001) //     23 --------------------------------------------------------------------------------------------------------------------------------------
(PID.TID 0000.0001) //     22 --------------------------------------------------------------------------------------------------------------------------------------
(PID.TID 0000.0001) //     21 --------------------------------------------------------------------------------------------------------------------------------------
(PID.TID 0000.0001) //     20 --------------------------------------------------------------------------------------------------------------------------------------
(PID.TID 0000.0001) //     19 --------------------------------------------------------------------------------------------------------------------------------------
(PID.TID 0000.0001) //     18 --------------------------------------------------------------------------------------------------------------------------------------
(PID.TID 0000.0001) //     17 --------------------------------------------------------------------------------------------------------------------------------------
(PID.TID 0000.0001) //     16 --------------------------------------------------------------------------------------------------------------------------------------
(PID.TID 0000.0001) //     15 --------------------------------------------------------------------------------------------------------------------------------------
(PID.TID 0000.0001) //     14 --------------------------------------------------------------------------------------------------------------------------------------
(PID.TID 0000.0001) //     13 --------------------------------------------------------------------------------------------------------------------------------------
(PID.TID 0000.0001) //     12 --------------------------------------------------------------------------------------------------------------------------------------
(PID.TID 0000.0001) //     11 --------------------------------------------------------------------------------------------------------------------------------------
(PID.TID 0000.0001) //     10 --------------------------------------------------------------------------------------------------------------------------------------
(PID.TID 0000.0001) //      9 --------------------------------------------------------------------------------------------------------------------------------------
(PID.TID 0000.0001) //      8 --------------------------------------------------------------------------------------------------------------------------------------
(PID.TID 0000.0001) //      7 --------------------------------------------------------------------------------------------------------------------------------------
(PID.TID 0000.0001) //      6 --------------------------------------------------------------------------------------------------------------------------------------
(PID.TID 0000.0001) //      5 --------------------------------------------------------------------------------------------------------------------------------------
(PID.TID 0000.0001) //      4 --------------------------------------------------------------------------------------------------------------------------------------
(PID.TID 0000.0001) //      3 --------------------------------------------------------------------------------------------------------------------------------------
(PID.TID 0000.0001) //      2 --------------------------------------------------------------------------------------------------------------------------------------
(PID.TID 0000.0001) //      1 ......................................................................................................................................
(PID.TID 0000.0001) //      0 --------------------------------------------------------------------------------------------------------------------------------------
(PID.TID 0000.0001) //     -1 --------------------------------------------------------------------------------------------------------------------------------------
(PID.TID 0000.0001) //     -2 --------------------------------------------------------------------------------------------------------------------------------------
(PID.TID 0000.0001) // =======================================================
(PID.TID 0000.0001) // END OF FIELD                                          =
(PID.TID 0000.0001) // =======================================================
(PID.TID 0000.0001) 
(PID.TID 0000.0001)  PACKAGES_BOOT: opening data.pkg
(PID.TID 0000.0001)  OPEN_COPY_DATA_FILE: opening file data.pkg
(PID.TID 0000.0001) // =======================================================
(PID.TID 0000.0001) // Parameter file "data.pkg"
(PID.TID 0000.0001) // =======================================================
(PID.TID 0000.0001) ># Packages
(PID.TID 0000.0001) > &PACKAGES
(PID.TID 0000.0001) > useAIM=.TRUE.,
(PID.TID 0000.0001) > useSHAP_FILT=.TRUE.,
(PID.TID 0000.0001) > &
(PID.TID 0000.0001) 
(PID.TID 0000.0001)  PACKAGES_BOOT: finished reading data.pkg
(PID.TID 0000.0001)  SHAP_FILT_READPARMS: opening data.shap
(PID.TID 0000.0001)  OPEN_COPY_DATA_FILE: opening file data.shap
(PID.TID 0000.0001) // =======================================================
(PID.TID 0000.0001) // Parameter file "data.shap"
(PID.TID 0000.0001) // =======================================================
(PID.TID 0000.0001) ># Shapiro Filter parameters
(PID.TID 0000.0001) > &SHAP_PARM01
(PID.TID 0000.0001) > shap_filt_uvStar=.FALSE.,
(PID.TID 0000.0001) > shap_filt_TrStagg=.TRUE.,
(PID.TID 0000.0001) > Shap_funct=4,
(PID.TID 0000.0001) > nShapT=4,
(PID.TID 0000.0001) > nShapUV=4,
(PID.TID 0000.0001) >#nShapTrPhys=4,
(PID.TID 0000.0001) >#nShapUVPhys=4,
(PID.TID 0000.0001) >#Shap_TrLength=115000.,
(PID.TID 0000.0001) >#Shap_uvLength=110000.,
(PID.TID 0000.0001) >#Shap_Trtau=3600.,
(PID.TID 0000.0001) >#Shap_uvtau=3600.,
(PID.TID 0000.0001) > Shap_noSlip=1.,
(PID.TID 0000.0001) > &
(PID.TID 0000.0001) >
(PID.TID 0000.0001) 
(PID.TID 0000.0001)  SHAP_FILT_READPARMS: finished reading data.shap
(PID.TID 0000.0001) Shap_funct =   /* select Shapiro filter function */
(PID.TID 0000.0001)                       4
(PID.TID 0000.0001)     ;
(PID.TID 0000.0001) nShapTr =   /* power of Shapiro filter for Tracers */
(PID.TID 0000.0001)                       4
(PID.TID 0000.0001)     ;
(PID.TID 0000.0001) nShapUV =   /* power of Shapiro filter for momentum */
(PID.TID 0000.0001)                       4
(PID.TID 0000.0001)     ;
(PID.TID 0000.0001) Shap_Trtau =   /* time scale of Shapiro filter (Tracer) */
(PID.TID 0000.0001)                 6.000000000000000E+02
(PID.TID 0000.0001)     ;
(PID.TID 0000.0001) Shap_TrLength =   /* Length scale of Shapiro filter (Tracer) */
(PID.TID 0000.0001)                 0.000000000000000E+00
(PID.TID 0000.0001)     ;
(PID.TID 0000.0001) Shap_uvtau =   /* time scale of Shapiro filter (Momentum) */
(PID.TID 0000.0001)                 6.000000000000000E+02
(PID.TID 0000.0001)     ;
(PID.TID 0000.0001) Shap_uvLength =   /* Length scale of Shapiro filter (Momentum) */
(PID.TID 0000.0001)                 0.000000000000000E+00
(PID.TID 0000.0001)     ;
(PID.TID 0000.0001) Shap_noSlip =  /* No-slip parameter (0=Free-slip ; 1=No-slip)*/
(PID.TID 0000.0001)                 1.000000000000000E+00
(PID.TID 0000.0001)     ;
(PID.TID 0000.0001) Shap_diagFreq =   /* Frequency^-1 for diagnostic output (s)*/
(PID.TID 0000.0001)                 0.000000000000000E+00
(PID.TID 0000.0001)     ;
(PID.TID 0000.0001) 
(PID.TID 0000.0001) // ===================================
(PID.TID 0000.0001) // GAD parameters :
(PID.TID 0000.0001) // ===================================
(PID.TID 0000.0001) tempAdvScheme =   /* Temp. advection scheme selector */
(PID.TID 0000.0001)                       2
(PID.TID 0000.0001)     ;
(PID.TID 0000.0001) tempMultiDimAdvec =   /* use Muti-Dim Advec method for Temp */
(PID.TID 0000.0001)                   F
(PID.TID 0000.0001)     ;
(PID.TID 0000.0001) tempAdamsBashforth =   /* use Adams-Bashforth time-stepping for Temp */
(PID.TID 0000.0001)                   T
(PID.TID 0000.0001)     ;
(PID.TID 0000.0001) saltAdvScheme =   /* Salt. advection scheme selector */
(PID.TID 0000.0001)                       3
(PID.TID 0000.0001)     ;
(PID.TID 0000.0001) saltMultiDimAdvec =   /* use Muti-Dim Advec method for Salt */
(PID.TID 0000.0001)                   F
(PID.TID 0000.0001)     ;
(PID.TID 0000.0001) saltAdamsBashforth =   /* use Adams-Bashforth time-stepping for Salt */
(PID.TID 0000.0001)                   T
(PID.TID 0000.0001)     ;
(PID.TID 0000.0001) // ===================================
(PID.TID 0000.0001)  AIM_READ_PHYSPARMS: opening data.aimphys
(PID.TID 0000.0001)  OPEN_COPY_DATA_FILE: opening file data.aimphys
(PID.TID 0000.0001) // =======================================================
(PID.TID 0000.0001) // Parameter file "data.aimphys"
(PID.TID 0000.0001) // =======================================================
(PID.TID 0000.0001) ># AIM physics package parameters:
(PID.TID 0000.0001) >
(PID.TID 0000.0001) >#--   Physical constants
(PID.TID 0000.0001) >#      P0   = reference pressure
(PID.TID 0000.0001) >#      GG   = gravity accel.
(PID.TID 0000.0001) >#      RD   = gas constant for dry air
(PID.TID 0000.0001) >#      CP   = specific heat at constant pressure
(PID.TID 0000.0001) >#      ALHC = latent heat of condensation
(PID.TID 0000.0001) >#      SBC  = Stefan-Boltzmann constant
(PID.TID 0000.0001) >
(PID.TID 0000.0001) >#--   Constants for forcing fields (namelist AIM_PAR_FOR):
(PID.TID 0000.0001) >#      SOLC   = Solar constant (area averaged) in W/m^2
(PID.TID 0000.0001) >#      ALBSEA = Albedo over sea
(PID.TID 0000.0001) >#      ALBICE = Albedo over sea ice (for ice fraction = 1)
(PID.TID 0000.0001) >#      ALBSN  = Albedo over snow (for snow depth > SDALB)
(PID.TID 0000.0001) >#      SDALB  = Snow depth corresponding to maximum albedo
(PID.TID 0000.0001) >#      SWCAP  = Soil wetness capacity
(PID.TID 0000.0001) >#      SWWIL  = Soil wetness at wilting point
(PID.TID 0000.0001) > &AIM_PAR_FOR
(PID.TID 0000.0001) > &
(PID.TID 0000.0001) >
(PID.TID 0000.0001) >#--   Constants for surface fluxes (namelist AIM_PAR_SFL):
(PID.TID 0000.0001) >#      FWIND0 = ratio of near-sfc wind to lowest-level wind
(PID.TID 0000.0001) >#      FTEMP0 = weight for near-sfc temperature extrapolation (0-1) :
(PID.TID 0000.0001) >#               1 : linear extrapolation from two lowest levels
(PID.TID 0000.0001) >#               0 : constant potential temperature ( = lowest level)
(PID.TID 0000.0001) >#      FHUM0  = weight for near-sfc specific humidity extrapolation (0-1) :
(PID.TID 0000.0001) >#               1 : extrap. with constant relative hum. ( = lowest level)
(PID.TID 0000.0001) >#               0 : constant specific hum. ( = lowest level)
(PID.TID 0000.0001) >#      CDL    = drag coefficient for momentum over land
(PID.TID 0000.0001) >#      CDS    = drag coefficient for momentum over sea
(PID.TID 0000.0001) >#      CHL    = heat exchange coefficient over land
(PID.TID 0000.0001) >#      CHS    = heat exchange coefficient over sea
(PID.TID 0000.0001) >#      VGUST  = wind speed for sub-grid-scale gusts
(PID.TID 0000.0001) >#      SWMAX  = Soil wetness (in mm) corresp. to potential evapotranspiration
(PID.TID 0000.0001) > &AIM_PAR_SFL
(PID.TID 0000.0001) >  FWIND0 = 0.42,
(PID.TID 0000.0001) >  FTEMP0 = 0.,
(PID.TID 0000.0001) >  CHL  = 2.0e-3,
(PID.TID 0000.0001) >  CHS  = 0.9e-3,
(PID.TID 0000.0001) >  VGUST  = 4.,
(PID.TID 0000.0001) > &
(PID.TID 0000.0001) >
(PID.TID 0000.0001) >#--   Convection constants (namelist AIM_PAR_CNV):
(PID.TID 0000.0001) >#      RHBL   = relative hum. threshold in the boundary (lowest) layer
(PID.TID 0000.0001) >#      TRCNV  = time of relaxation (in hours) towards neutral equilibrium
(PID.TID 0000.0001) >#      ENTMAX = max. entrainment as a fraction of cloud-base mass flux
(PID.TID 0000.0001) > &AIM_PAR_CNV
(PID.TID 0000.0001) > &
(PID.TID 0000.0001) >
(PID.TID 0000.0001) >#--   Constants for large-scale condendation (namelist AIM_PAR_LSC):
(PID.TID 0000.0001) >#      RHLSC  = Relative humidity threshold
(PID.TID 0000.0001) >#      TRLSC  = Relaxation time (in hours) for supersat. specific humidity
(PID.TID 0000.0001) > &AIM_PAR_LSC
(PID.TID 0000.0001) > &
(PID.TID 0000.0001) >
(PID.TID 0000.0001) >#--   Radiation constants (namelist AIM_PAR_RAD):
(PID.TID 0000.0001) >#      ABSSW  = shortwave absorptivity for dry air (per dp = 10^5 Pa)
(PID.TID 0000.0001) >#      ABSLW  =  longwave absorptivity for dry air (per dp = 10^5 Pa)
(PID.TID 0000.0001) >#      ABWSW  = shortwave absorptivity for water vapour (per dq = 1 g/kg)
(PID.TID 0000.0001) >#      ABWLW  =  longwave absorptivity for water vapour (per dq = 1 g/kg)
(PID.TID 0000.0001) >#      ABCSW  = shortwave absorptivity for cloud fraction
(PID.TID 0000.0001) >#      ABCLW  =  longwave absorptivity for cloud fraction
(PID.TID 0000.0001) >#      EPSSW  = fraction of incoming solar radiation absorbed by ozone
(PID.TID 0000.0001) >#      EPSLW  = fraction of surface LW radiation emitted directly to space
(PID.TID 0000.0001) >#      ALBCL  = cloud albedo (for cloud cover = 1)
(PID.TID 0000.0001) >#      RHCL1  = relative hum. corresponding to cloud cover = 0
(PID.TID 0000.0001) >#      RHCL2  = relative hum. corresponding to cloud cover = 1
(PID.TID 0000.0001) >#      QACL   = specific hum. threshold for cloud cover
(PID.TID 0000.0001) > &AIM_PAR_RAD
(PID.TID 0000.0001) >   ABWLW = 0.60,
(PID.TID 0000.0001) >   ALBCL = 0.34,
(PID.TID 0000.0001) >   RHCL1 = 0.50,
(PID.TID 0000.0001) >   RHCL2 = 0.90,
(PID.TID 0000.0001) >   QACL  = 0.50,
(PID.TID 0000.0001) > &
(PID.TID 0000.0001) >
(PID.TID 0000.0001) >#--   Constants for vertical dif. and sh. conv. (namelist AIM_PAR_VDI):
(PID.TID 0000.0001) >#      TRVDI  = relaxation time (in hours) for moisture diffusion
(PID.TID 0000.0001) >#      TRSHC  = relaxation time (in hours) for shallow convection
(PID.TID 0000.0001) > &AIM_PAR_VDI
(PID.TID 0000.0001) >   TRVDI = 48.,
(PID.TID 0000.0001) >   TRSHC = 12.,
(PID.TID 0000.0001) > &
(PID.TID 0000.0001) >
(PID.TID 0000.0001) 
(PID.TID 0000.0001)  AIM_READ_PHYSPARMS: finished reading data.aimphys
(PID.TID 0000.0001) 
(PID.TID 0000.0001) // ===================================
(PID.TID 0000.0001) // AIM physics parameters :
(PID.TID 0000.0001) // ===================================
(PID.TID 0000.0001) AIM_FOR:   SOLC =   /* Solar constant (area averaged) in W/m2 */
(PID.TID 0000.0001)                 3.420000000000000E+02
(PID.TID 0000.0001)     ;
(PID.TID 0000.0001) AIM_SFL: FWIND0 =   /* ratio of near-sfc wind to lowest-level wind */
(PID.TID 0000.0001)                 4.200000000000000E-01
(PID.TID 0000.0001)     ;
(PID.TID 0000.0001) AIM_SFL: FTEMP0 =  /* weight for near-sfc temp. extrapolation (0-1)*/
(PID.TID 0000.0001)                 0.000000000000000E+00
(PID.TID 0000.0001)     ;
(PID.TID 0000.0001) AIM_SFL:  FHUM0 =  /* weight for near-sfc spec.humid. extrap. (0-1)*/
(PID.TID 0000.0001)                 1.000000000000000E+00
(PID.TID 0000.0001)     ;
(PID.TID 0000.0001) AIM_SFL:    CDL =   /* drag coefficient for momentum over land */
(PID.TID 0000.0001)                 1.800000000000000E-03
(PID.TID 0000.0001)     ;
(PID.TID 0000.0001) AIM_SFL:    CDS =   /* drag coefficient for momentum over sea  */
(PID.TID 0000.0001)                 8.000000000000000E-04
(PID.TID 0000.0001)     ;
(PID.TID 0000.0001) AIM_SFL:    CHL =   /* heat exchange coefficient over land */
(PID.TID 0000.0001)                 2.000000000000000E-03
(PID.TID 0000.0001)     ;
(PID.TID 0000.0001) AIM_SFL:    CHS =   /* heat exchange coefficient over sea  */
(PID.TID 0000.0001)                 9.000000000000000E-04
(PID.TID 0000.0001)     ;
(PID.TID 0000.0001) AIM_SFL:  VGUST =   /* wind speed [m/s] for sub-grid-scale gusts */
(PID.TID 0000.0001)                 4.000000000000000E+00
(PID.TID 0000.0001)     ;
(PID.TID 0000.0001) AIM_CNV:   RHBL =   /* rel. hum. threshold in the B.(lowest) layer */
(PID.TID 0000.0001)                 8.000000000000000E-01
(PID.TID 0000.0001)     ;
(PID.TID 0000.0001) AIM_CNV:  TRCNV =   /* time of relaxation [h] towards neutral eq. */
(PID.TID 0000.0001)                 6.000000000000000E+00
(PID.TID 0000.0001)     ;
(PID.TID 0000.0001) AIM_CNV: ENTMAX =   /* time of relaxation [h] towards neutral eq. */
(PID.TID 0000.0001)                 5.000000000000000E-01
(PID.TID 0000.0001)     ;
(PID.TID 0000.0001) AIM_LSC:  RHLSC =   /* Relative humidity threshold */
(PID.TID 0000.0001)                 9.000000000000000E-01
(PID.TID 0000.0001)     ;
(PID.TID 0000.0001) AIM_LSC:  TRLSC =   /* relaxation time [h] for supersat. spec.hum. */
(PID.TID 0000.0001)                 4.000000000000000E+00
(PID.TID 0000.0001)     ;
(PID.TID 0000.0001) AIM_RAD:  ABSSW =   /* ShortW. absorptivity for dry air (/dp, 1e5 Pa)*/
(PID.TID 0000.0001)                 6.000000000000000E-02
(PID.TID 0000.0001)     ;
(PID.TID 0000.0001) AIM_RAD:  ABSLW =   /*  LongW. absorptivity for dry air (/dp, 1e5 Pa)*/
(PID.TID 0000.0001)                 1.400000000000000E+00
(PID.TID 0000.0001)     ;
(PID.TID 0000.0001) AIM_RAD:  ABWSW =   /* ShortW. absorptivity for WaterVap.(/dq, 1g/kg)*/
(PID.TID 0000.0001)                 6.000000000000000E-02
(PID.TID 0000.0001)     ;
(PID.TID 0000.0001) AIM_RAD:  ABWLW =   /*  LongW. absorptivity for WaterVap.(/dq, 1g/kg)*/
(PID.TID 0000.0001)                 6.000000000000000E-01
(PID.TID 0000.0001)     ;
(PID.TID 0000.0001) AIM_RAD:  ABCSW =   /* ShortW. absorptivity for cloud fraction */
(PID.TID 0000.0001)                 0.000000000000000E+00
(PID.TID 0000.0001)     ;
(PID.TID 0000.0001) AIM_RAD:  ABCLW =   /*  LongW. absorptivity for cloud fraction */
(PID.TID 0000.0001)                 1.500000000000000E-01
(PID.TID 0000.0001)     ;
(PID.TID 0000.0001) AIM_RAD:  EPSSW =   /*  fraction of inc.solar rad. absorbed by ozone */
(PID.TID 0000.0001)                 3.000000000000000E-02
(PID.TID 0000.0001)     ;
(PID.TID 0000.0001) AIM_RAD:  EPSLW =   /*  fraction of sfc LW emitted directly to space */
(PID.TID 0000.0001)                 5.000000000000000E-02
(PID.TID 0000.0001)     ;
(PID.TID 0000.0001) AIM_RAD:  ALBCL =   /*  cloud albedo (for cloud cover = 1) */
(PID.TID 0000.0001)                 3.400000000000000E-01
(PID.TID 0000.0001)     ;
(PID.TID 0000.0001) AIM_RAD:  RHCL1 =   /*  rel.hum. corresponding to cloud cover = 0 */
(PID.TID 0000.0001)                 5.000000000000000E-01
(PID.TID 0000.0001)     ;
(PID.TID 0000.0001) AIM_RAD:  RHCL2 =   /*  rel.hum. corresponding to cloud cover = 1 */
(PID.TID 0000.0001)                 9.000000000000000E-01
(PID.TID 0000.0001)     ;
(PID.TID 0000.0001) AIM_RAD:   QACL =   /*  specific hum. threshold for cloud cover */
(PID.TID 0000.0001)                 5.000000000000000E-01
(PID.TID 0000.0001)     ;
(PID.TID 0000.0001) AIM_VDI:  TRVDI =   /* relaxation time [h] for moisture diffusion */
(PID.TID 0000.0001)                 4.800000000000000E+01
(PID.TID 0000.0001)     ;
(PID.TID 0000.0001) AIM_VDI:  TRSHC =   /* relaxation time [h] for shallow convection */
(PID.TID 0000.0001)                 1.200000000000000E+01
(PID.TID 0000.0001)     ;
(PID.TID 0000.0001) %MON fCori_max                    =   7.4773213164249E-05
(PID.TID 0000.0001) %MON fCori_min                    =  -7.4773213164249E-05
(PID.TID 0000.0001) %MON fCori_mean                   =   6.3527471044073E-22
(PID.TID 0000.0001) %MON fCori_sd                     =   4.6907817211331E-05
(PID.TID 0000.0001) %MON fCoriG_max                   =   7.1689136096147E-05
(PID.TID 0000.0001) %MON fCoriG_min                   =  -7.7812249644691E-05
(PID.TID 0000.0001) %MON fCoriG_mean                  =  -3.3831412888996E-06
(PID.TID 0000.0001) %MON fCoriG_sd                    =   4.5863229796664E-05
(PID.TID 0000.0001) %MON fCoriCos_max                 =   1.4544410433286E-04
(PID.TID 0000.0001) %MON fCoriCos_min                 =   1.2475156944216E-04
(PID.TID 0000.0001) %MON fCoriCos_mean                =   1.3785541688514E-04
(PID.TID 0000.0001) %MON fCoriCos_sd                  =   6.7227454031353E-06
(PID.TID 0000.0001) // CG2D normalisation factor =          0.8577286100002720669113754E-05
(PID.TID 0000.0001) 
 ini_cg2d: sumArea,cg2dTolerance =  2.72797620993307E+14  3.89977207109950E-12
(PID.TID 0000.0001) CONFIG_CHECK: OK
(PID.TID 0000.0001) // =======================================================
(PID.TID 0000.0001) // Model configuration
(PID.TID 0000.0001) // =======================================================
(PID.TID 0000.0001) //
(PID.TID 0000.0001) // "Physical" paramters ( PARM01 in namelist )
(PID.TID 0000.0001) //
(PID.TID 0000.0001) buoyancyRelation = ATMOSPHERIC
(PID.TID 0000.0001) tRef =   /* Reference temperature profile ( oC or oK ) */
(PID.TID 0000.0001)                 2.810890000000000E+02,      /* K =  1 */
(PID.TID 0000.0001)                 2.893210000000000E+02,      /* K =  2 */
(PID.TID 0000.0001)                 3.071910000000000E+02,      /* K =  3 */
(PID.TID 0000.0001)                 3.313770000000000E+02,      /* K =  4 */
(PID.TID 0000.0001)                 4.324130000000000E+02       /* K =  5 */
(PID.TID 0000.0001)     ;
(PID.TID 0000.0001) sRef =   /* Reference salinity profile ( ppt ) */
(PID.TID 0000.0001)     5 @  0.000000000000000E+00              /* K =  1:  5 */
(PID.TID 0000.0001)     ;
(PID.TID 0000.0001) viscAh =   /* Lateral eddy viscosity ( m^2/s ) */
(PID.TID 0000.0001)                 0.000000000000000E+00
(PID.TID 0000.0001)     ;
(PID.TID 0000.0001) viscAh =   /* Lateral biharmonic viscosity ( m^4/s ) */
(PID.TID 0000.0001)                 0.000000000000000E+00
(PID.TID 0000.0001)     ;
(PID.TID 0000.0001) no_slip_sides =  /* Viscous BCs: No-slip sides */
(PID.TID 0000.0001)                   F
(PID.TID 0000.0001)     ;
(PID.TID 0000.0001) viscAr =   /* Vertical eddy viscosity ( units of r^2/s ) */
(PID.TID 0000.0001)                 1.000000000000000E+03
(PID.TID 0000.0001)     ;
(PID.TID 0000.0001) diffKhT =   /* Laplacian diffusion of heat laterally ( m^2/s ) */
(PID.TID 0000.0001)                 0.000000000000000E+00
(PID.TID 0000.0001)     ;
(PID.TID 0000.0001) diffK4T =   /* Bihaarmonic diffusion of heat laterally ( m^4/s ) */
(PID.TID 0000.0001)                 0.000000000000000E+00
(PID.TID 0000.0001)     ;
(PID.TID 0000.0001) diffKzT =   /* Laplacian diffusion of heat vertically ( m^2/s ) */
(PID.TID 0000.0001)                 1.234567000000000E+05
(PID.TID 0000.0001)     ;
(PID.TID 0000.0001) diffKrT =   /* Laplacian diffusion of heat vertically ( m^2/s ) */
(PID.TID 0000.0001)                 0.000000000000000E+00
(PID.TID 0000.0001)     ;
(PID.TID 0000.0001) diffKhS =   /* Laplacian diffusion of salt laterally ( m^2/s ) */
(PID.TID 0000.0001)                 0.000000000000000E+00
(PID.TID 0000.0001)     ;
(PID.TID 0000.0001) diffK4S =   /* Bihaarmonic diffusion of salt laterally ( m^4/s ) */
(PID.TID 0000.0001)                 0.000000000000000E+00
(PID.TID 0000.0001)     ;
(PID.TID 0000.0001) diffKzS =   /* Laplacian diffusion of salt vertically ( m^2/s ) */
(PID.TID 0000.0001)                 1.234567000000000E+05
(PID.TID 0000.0001)     ;
(PID.TID 0000.0001) diffKrS =   /* Laplacian diffusion of salt vertically ( m^2/s ) */
(PID.TID 0000.0001)                 0.000000000000000E+00
(PID.TID 0000.0001)     ;
(PID.TID 0000.0001)  Equation of State : eosType = IDEALG
(PID.TID 0000.0001) tAlpha =   /* Linear EOS thermal expansion coefficient ( 1/degree ) */
(PID.TID 0000.0001)                 1.234567000000000E+05
(PID.TID 0000.0001)     ;
(PID.TID 0000.0001) sBeta =   /* Linear EOS haline contraction coefficient ( 1/ppt ) */
(PID.TID 0000.0001)                 1.234567000000000E+05
(PID.TID 0000.0001)     ;
(PID.TID 0000.0001) atm_Rd =  /* gas constant for dry air ( J/kg/K ) */
(PID.TID 0000.0001)                 2.868571428571428E+02
(PID.TID 0000.0001)     ;
(PID.TID 0000.0001) atm_Cp =  /* specific heat (Cp) of dry air ( J/kg/K ) */
(PID.TID 0000.0001)                 1.004000000000000E+03
(PID.TID 0000.0001)     ;
(PID.TID 0000.0001) atm_kappa =  /* kappa (=Rd/Cp ) of dry air */
(PID.TID 0000.0001)                 2.857142857142857E-01
(PID.TID 0000.0001)     ;
(PID.TID 0000.0001) atm_Rq = /* water vap. specific vol. anomaly relative to dry air */
(PID.TID 0000.0001)                 0.000000000000000E+00
(PID.TID 0000.0001)     ;
(PID.TID 0000.0001) atm_Po =  /* standard reference pressure ( Pa ) */
(PID.TID 0000.0001)                 1.000000000000000E+05
(PID.TID 0000.0001)     ;
(PID.TID 0000.0001) integr_GeoPot =  /* select how the geopotential is integrated */
(PID.TID 0000.0001)                       2
(PID.TID 0000.0001)     ;
(PID.TID 0000.0001) selectFindRoSurf=  /* select how Surf.Ref. pressure is defined */
(PID.TID 0000.0001)                       0
(PID.TID 0000.0001)     ;
(PID.TID 0000.0001) rhonil =   /* Reference density ( kg/m^3 ) */
(PID.TID 0000.0001)                 1.000000000000000E+00
(PID.TID 0000.0001)     ;
(PID.TID 0000.0001) rhoConst =   /* Reference density ( kg/m^3 ) */
(PID.TID 0000.0001)                 1.000000000000000E+00
(PID.TID 0000.0001)     ;
(PID.TID 0000.0001) rhoConstFresh =   /* Reference density ( kg/m^3 ) */
(PID.TID 0000.0001)                 9.998000000000000E+02
(PID.TID 0000.0001)     ;
(PID.TID 0000.0001) gravity =   /* Gravitational acceleration ( m/s^2 ) */
(PID.TID 0000.0001)                 9.810000000000000E+00
(PID.TID 0000.0001)     ;
(PID.TID 0000.0001) gBaro =   /* Barotropic gravity ( m/s^2 ) */
(PID.TID 0000.0001)                 9.810000000000000E+00
(PID.TID 0000.0001)     ;
(PID.TID 0000.0001) rotationPeriod =   /* Rotation Period ( s ) */
(PID.TID 0000.0001)                 8.640000000000000E+04
(PID.TID 0000.0001)     ;
(PID.TID 0000.0001) omega =   /* Angular velocity ( rad/s ) */
(PID.TID 0000.0001)                 7.272205216643040E-05
(PID.TID 0000.0001)     ;
(PID.TID 0000.0001) f0 =   /* Reference coriolis parameter ( 1/s ) */
(PID.TID 0000.0001)                 1.000000000000000E-04
(PID.TID 0000.0001)     ;
(PID.TID 0000.0001) beta =   /* Beta ( 1/(m.s) ) */
(PID.TID 0000.0001)                 9.999999999999999E-12
(PID.TID 0000.0001)     ;
(PID.TID 0000.0001) freeSurfFac =   /* Implicit free surface factor */
(PID.TID 0000.0001)                 1.000000000000000E+00
(PID.TID 0000.0001)     ;
(PID.TID 0000.0001) implicitFreeSurface =   /* Implicit free surface on/off flag */
(PID.TID 0000.0001)                   T
(PID.TID 0000.0001)     ;
(PID.TID 0000.0001) rigidLid =   /* Rigid lid on/off flag */
(PID.TID 0000.0001)                   F
(PID.TID 0000.0001)     ;
(PID.TID 0000.0001) implicSurfPress =   /* Surface Pressure implicit factor (0-1)*/
(PID.TID 0000.0001)                 1.000000000000000E+00
(PID.TID 0000.0001)     ;
(PID.TID 0000.0001) implicDiv2Dflow =   /* Barot. Flow Div. implicit factor (0-1)*/
(PID.TID 0000.0001)                 1.000000000000000E+00
(PID.TID 0000.0001)     ;
(PID.TID 0000.0001) exactConserv =   /* Exact Volume Conservation on/off flag*/
(PID.TID 0000.0001)                   T
(PID.TID 0000.0001)     ;
(PID.TID 0000.0001) uniformLin_PhiSurf =   /* use uniform Bo_surf on/off flag*/
(PID.TID 0000.0001)                   T
(PID.TID 0000.0001)     ;
(PID.TID 0000.0001) nonlinFreeSurf =   /* Non-linear Free Surf. options (-1,0,1,2,3)*/
(PID.TID 0000.0001)                       0
(PID.TID 0000.0001)     ;
(PID.TID 0000.0001)      -1,0= Off ; 1,2,3= On, 2=+rescale gU,gV, 3=+update cg2d solv.
(PID.TID 0000.0001) hFacInf =   /* lower threshold for hFac (nonlinFreeSurf only)*/
(PID.TID 0000.0001)                 2.000000000000000E-01
(PID.TID 0000.0001)     ;
(PID.TID 0000.0001) hFacSup =   /* upper threshold for hFac (nonlinFreeSurf only)*/
(PID.TID 0000.0001)                 2.000000000000000E+00
(PID.TID 0000.0001)     ;
(PID.TID 0000.0001) select_rStar =   /* r* Coordinate options (not yet implemented)*/
(PID.TID 0000.0001)                       0
(PID.TID 0000.0001)     ;
(PID.TID 0000.0001) useRealFreshWaterFlux =   /* Real Fresh Water Flux on/off flag*/
(PID.TID 0000.0001)                   F
(PID.TID 0000.0001)     ;
(PID.TID 0000.0001) convertFW2Salt = /* convert F.W. Flux to Salt Flux (-1=use local S)(ppt)*/
(PID.TID 0000.0001)                 3.500000000000000E+01
(PID.TID 0000.0001)     ;
(PID.TID 0000.0001) multiDimAdvection =   /* enable/disable Multi-Dim Advection */
(PID.TID 0000.0001)                   T
(PID.TID 0000.0001)     ;
(PID.TID 0000.0001) staggerTimeStep =   /* Stagger time stepping on/off flag */
(PID.TID 0000.0001)                   T
(PID.TID 0000.0001)     ;
(PID.TID 0000.0001) momStepping =  /* Momentum equation on/off flag */
(PID.TID 0000.0001)                   T
(PID.TID 0000.0001)     ;
(PID.TID 0000.0001) momAdvection =  /* Momentum advection on/off flag */
(PID.TID 0000.0001)                   T
(PID.TID 0000.0001)     ;
(PID.TID 0000.0001) momViscosity =  /* Momentum viscosity on/off flag */
(PID.TID 0000.0001)                   T
(PID.TID 0000.0001)     ;
(PID.TID 0000.0001) useCoriolis =  /* Coriolis on/off flag */
(PID.TID 0000.0001)                   T
(PID.TID 0000.0001)     ;
(PID.TID 0000.0001) momForcing =  /* Momentum forcing on/off flag */
(PID.TID 0000.0001)                   T
(PID.TID 0000.0001)     ;
(PID.TID 0000.0001) momPressureForcing =  /* Momentum pressure term on/off flag */
(PID.TID 0000.0001)                   T
(PID.TID 0000.0001)     ;
(PID.TID 0000.0001) tempStepping =  /* Temperature equation on/off flag */
(PID.TID 0000.0001)                   T
(PID.TID 0000.0001)     ;
(PID.TID 0000.0001) tempAdvection=  /* Temperature advection on/off flag */
(PID.TID 0000.0001)                   T
(PID.TID 0000.0001)     ;
(PID.TID 0000.0001) tempForcing  =  /* Temperature forcing on/off flag */
(PID.TID 0000.0001)                   T
(PID.TID 0000.0001)     ;
(PID.TID 0000.0001) saltStepping =  /* Salinity equation on/off flag */
(PID.TID 0000.0001)                   T
(PID.TID 0000.0001)     ;
(PID.TID 0000.0001) saltAdvection=  /* Salinity advection on/off flag */
(PID.TID 0000.0001)                   T
(PID.TID 0000.0001)     ;
(PID.TID 0000.0001) saltForcing  =  /* Salinity forcing on/off flag */
(PID.TID 0000.0001)                   T
(PID.TID 0000.0001)     ;
(PID.TID 0000.0001) nonHydrostatic =  /* Non-Hydrostatic on/off flag */
(PID.TID 0000.0001)                   F
(PID.TID 0000.0001)     ;
(PID.TID 0000.0001) useCDscheme =  /* CD scheme on/off flag */
(PID.TID 0000.0001)                   F
(PID.TID 0000.0001)     ;
(PID.TID 0000.0001) useJamartWetPoints= /* Coriolis WetPoints method flag */
(PID.TID 0000.0001)                   F
(PID.TID 0000.0001)     ;
(PID.TID 0000.0001) //
(PID.TID 0000.0001) // Elliptic solver(s) paramters ( PARM02 in namelist )
(PID.TID 0000.0001) //
(PID.TID 0000.0001) cg2dMaxIters =   /* Upper limit on 2d con. grad iterations  */
(PID.TID 0000.0001)                     200
(PID.TID 0000.0001)     ;
(PID.TID 0000.0001) cg2dChkResFreq =   /* 2d con. grad convergence test frequency */
(PID.TID 0000.0001)                       1
(PID.TID 0000.0001)     ;
(PID.TID 0000.0001) cg2dTargetResidual =   /* 2d con. grad target residual  */
(PID.TID 0000.0001)                 1.000000000000000E-07
(PID.TID 0000.0001)     ;
(PID.TID 0000.0001) //
(PID.TID 0000.0001) // Time stepping paramters ( PARM03 in namelist )
(PID.TID 0000.0001) //
(PID.TID 0000.0001) nIter0 =   /* Base timestep number  */
(PID.TID 0000.0001)                    8640
(PID.TID 0000.0001)     ;
(PID.TID 0000.0001) nTimeSteps =   /* Number of timesteps */
(PID.TID 0000.0001)                      10
(PID.TID 0000.0001)     ;
(PID.TID 0000.0001) deltatTmom =   /* Momentum equation timestep ( s ) */
(PID.TID 0000.0001)                 6.000000000000000E+02
(PID.TID 0000.0001)     ;
(PID.TID 0000.0001) deltaTfreesurf =   /* FreeSurface equation timestep ( s ) */
(PID.TID 0000.0001)                 6.000000000000000E+02
(PID.TID 0000.0001)     ;
(PID.TID 0000.0001) deltatTtracer =   /* Tracer equation timestep ( s ) */
(PID.TID 0000.0001)                 6.000000000000000E+02
(PID.TID 0000.0001)     ;
(PID.TID 0000.0001) deltatTClock  =   /* Model clock timestep ( s ) */
(PID.TID 0000.0001)                 6.000000000000000E+02
(PID.TID 0000.0001)     ;
(PID.TID 0000.0001) cAdjFreq =   /* Convective adjustment interval ( s ) */
(PID.TID 0000.0001)                 0.000000000000000E+00
(PID.TID 0000.0001)     ;
(PID.TID 0000.0001) forcing_In_AB =   /* put T,S Forcing in Adams-Bash. stepping */
(PID.TID 0000.0001)                   F
(PID.TID 0000.0001)     ;
(PID.TID 0000.0001) abeps =   /* Adams-Bashforth stabilizing weight */
(PID.TID 0000.0001)                 1.000000000000000E-01
(PID.TID 0000.0001)     ;
(PID.TID 0000.0001) startTime =   /* Run start time ( s ). */
(PID.TID 0000.0001)                 5.184000000000000E+06
(PID.TID 0000.0001)     ;
(PID.TID 0000.0001) endTime =   /* Integration ending time ( s ). */
(PID.TID 0000.0001)                 5.190000000000000E+06
(PID.TID 0000.0001)     ;
(PID.TID 0000.0001) pChkPtFreq =   /* Permanent restart/checkpoint file interval ( s ). */
(PID.TID 0000.0001)                 2.592000000000000E+06
(PID.TID 0000.0001)     ;
(PID.TID 0000.0001) chkPtFreq =   /* Rolling restart/checkpoint file interval ( s ). */
(PID.TID 0000.0001)                 0.000000000000000E+00
(PID.TID 0000.0001)     ;
(PID.TID 0000.0001) dumpFreq =   /* Model state write out interval ( s ). */
(PID.TID 0000.0001)                 2.592000000000000E+06
(PID.TID 0000.0001)     ;
(PID.TID 0000.0001) externForcingPeriod =   /* forcing period (s) */
(PID.TID 0000.0001)                 0.000000000000000E+00
(PID.TID 0000.0001)     ;
(PID.TID 0000.0001) externForcingCycle =   /* period of the cyle (s). */
(PID.TID 0000.0001)                 0.000000000000000E+00
(PID.TID 0000.0001)     ;
(PID.TID 0000.0001) tauThetaClimRelax =   /* relaxation time scale (s) */
(PID.TID 0000.0001)                 0.000000000000000E+00
(PID.TID 0000.0001)     ;
(PID.TID 0000.0001) tauSaltClimRelax =   /* relaxation time scale (s) */
(PID.TID 0000.0001)                 0.000000000000000E+00
(PID.TID 0000.0001)     ;
(PID.TID 0000.0001) latBandClimRelax =   /* max. Lat. where relaxation */
(PID.TID 0000.0001)                 1.800000000000000E+02
(PID.TID 0000.0001)     ;
(PID.TID 0000.0001) //
(PID.TID 0000.0001) // Gridding paramters ( PARM04 in namelist )
(PID.TID 0000.0001) //
(PID.TID 0000.0001) usingCartesianGrid =   /* Cartesian coordinates flag ( True / False ) */
(PID.TID 0000.0001)                   F
(PID.TID 0000.0001)     ;
(PID.TID 0000.0001) usingSphericalPolarGrid =   /* Spherical coordinates flag ( True / False ) */
(PID.TID 0000.0001)                   T
(PID.TID 0000.0001)     ;
(PID.TID 0000.0001) groundAtK1 =   /* Lower Boundary (ground) at the surface(k=1) ( T / F ) */
(PID.TID 0000.0001)                   T
(PID.TID 0000.0001)     ;
(PID.TID 0000.0001) Ro_SeaLevel =   /* r(1) ( units of r ) */
(PID.TID 0000.0001)                 1.000000000000000E+05
(PID.TID 0000.0001)     ;
(PID.TID 0000.0001) rkFac =   /* minus Vertical index orientation  */
(PID.TID 0000.0001)                 1.000000000000000E+00
(PID.TID 0000.0001)     ;
(PID.TID 0000.0001) horiVertRatio =   /* Ratio on units : Horiz - Vertical */
(PID.TID 0000.0001)                 9.810000000000000E+00
(PID.TID 0000.0001)     ;
(PID.TID 0000.0001) drC =   /* C spacing ( units of r ) */
(PID.TID 0000.0001)                 5.000000000000000E+03,      /* K =  1 */
(PID.TID 0000.0001)                 1.750000000000000E+04,      /* K =  2 */
(PID.TID 0000.0001)                 2.750000000000000E+04,      /* K =  3 */
(PID.TID 0000.0001)                 2.500000000000000E+04,      /* K =  4 */
(PID.TID 0000.0001)                 1.750000000000000E+04       /* K =  5 */
(PID.TID 0000.0001)     ;
(PID.TID 0000.0001) drF =   /* W spacing ( units of r ) */
(PID.TID 0000.0001)                 1.000000000000000E+04,      /* K =  1 */
(PID.TID 0000.0001)                 2.500000000000000E+04,      /* K =  2 */
(PID.TID 0000.0001)                 3.000000000000000E+04,      /* K =  3 */
(PID.TID 0000.0001)                 2.000000000000000E+04,      /* K =  4 */
(PID.TID 0000.0001)                 1.500000000000000E+04       /* K =  5 */
(PID.TID 0000.0001)     ;
(PID.TID 0000.0001) delX =   /* U spacing ( m - cartesian, degrees - spherical ) */
(PID.TID 0000.0001)   128 @  2.812500000000000E+00              /* I =  1:128 */
(PID.TID 0000.0001)     ;
(PID.TID 0000.0001) delY =   /* V spacing ( m - cartesian, degrees - spherical ) */
(PID.TID 0000.0001)    23 @  2.812500000000000E+00              /* J =  1: 23 */
(PID.TID 0000.0001)     ;
(PID.TID 0000.0001) phiMin =    /* South edge (ignored - cartesian, degrees - spherical ) */
(PID.TID 0000.0001)                -3.234375000000000E+01
(PID.TID 0000.0001)     ;
(PID.TID 0000.0001) thetaMin =    /* West edge ( ignored - cartesian, degrees - spherical ) */
(PID.TID 0000.0001)                 0.000000000000000E+00
(PID.TID 0000.0001)     ;
(PID.TID 0000.0001) rSphere =    /* Radius ( ignored - cartesian, m - spherical ) */
(PID.TID 0000.0001)                 6.370000000000000E+06
(PID.TID 0000.0001)     ;
(PID.TID 0000.0001) xcoord =   /* P-point X coord ( m - cartesian, degrees - spherical ) */
(PID.TID 0000.0001)                 1.406250000000000E+00,      /* I =  1 */
(PID.TID 0000.0001)                 4.218750000000000E+00,      /* I =  2 */
(PID.TID 0000.0001)                 7.031250000000000E+00,      /* I =  3 */
(PID.TID 0000.0001)                 9.843750000000000E+00,      /* I =  4 */
(PID.TID 0000.0001)                 1.265625000000000E+01,      /* I =  5 */
(PID.TID 0000.0001)                 1.546875000000000E+01,      /* I =  6 */
(PID.TID 0000.0001)                 1.828125000000000E+01,      /* I =  7 */
(PID.TID 0000.0001)                 2.109375000000000E+01,      /* I =  8 */
(PID.TID 0000.0001)                 2.390625000000000E+01,      /* I =  9 */
(PID.TID 0000.0001)                 2.671875000000000E+01,      /* I = 10 */
(PID.TID 0000.0001)                 2.953125000000000E+01,      /* I = 11 */
(PID.TID 0000.0001)                 3.234375000000000E+01,      /* I = 12 */
(PID.TID 0000.0001)                 3.515625000000000E+01,      /* I = 13 */
(PID.TID 0000.0001)                 3.796875000000000E+01,      /* I = 14 */
(PID.TID 0000.0001)                 4.078125000000000E+01,      /* I = 15 */
(PID.TID 0000.0001)                 4.359375000000000E+01,      /* I = 16 */
(PID.TID 0000.0001)                 4.640625000000000E+01,      /* I = 17 */
(PID.TID 0000.0001)                 4.921875000000000E+01,      /* I = 18 */
(PID.TID 0000.0001)                 5.203125000000000E+01,      /* I = 19 */
(PID.TID 0000.0001)                 5.484375000000000E+01,      /* I = 20 */
(PID.TID 0000.0001)                 5.765625000000000E+01,      /* I = 21 */
(PID.TID 0000.0001)                 6.046875000000000E+01,      /* I = 22 */
(PID.TID 0000.0001)                 6.328125000000000E+01,      /* I = 23 */
(PID.TID 0000.0001)                 6.609375000000000E+01,      /* I = 24 */
(PID.TID 0000.0001)                 6.890625000000000E+01,      /* I = 25 */
(PID.TID 0000.0001)                 7.171875000000000E+01,      /* I = 26 */
(PID.TID 0000.0001)                 7.453125000000000E+01,      /* I = 27 */
(PID.TID 0000.0001)                 7.734375000000000E+01,      /* I = 28 */
(PID.TID 0000.0001)                 8.015625000000000E+01,      /* I = 29 */
(PID.TID 0000.0001)                 8.296875000000000E+01,      /* I = 30 */
(PID.TID 0000.0001)                 8.578125000000000E+01,      /* I = 31 */
(PID.TID 0000.0001)                 8.859375000000000E+01,      /* I = 32 */
(PID.TID 0000.0001)                 9.140625000000000E+01,      /* I = 33 */
(PID.TID 0000.0001)                 9.421875000000000E+01,      /* I = 34 */
(PID.TID 0000.0001)                 9.703125000000000E+01,      /* I = 35 */
(PID.TID 0000.0001)                 9.984375000000000E+01,      /* I = 36 */
(PID.TID 0000.0001)                 1.026562500000000E+02,      /* I = 37 */
(PID.TID 0000.0001)                 1.054687500000000E+02,      /* I = 38 */
(PID.TID 0000.0001)                 1.082812500000000E+02,      /* I = 39 */
(PID.TID 0000.0001)                 1.110937500000000E+02,      /* I = 40 */
(PID.TID 0000.0001)                 1.139062500000000E+02,      /* I = 41 */
(PID.TID 0000.0001)                 1.167187500000000E+02,      /* I = 42 */
(PID.TID 0000.0001)                 1.195312500000000E+02,      /* I = 43 */
(PID.TID 0000.0001)                 1.223437500000000E+02,      /* I = 44 */
(PID.TID 0000.0001)                 1.251562500000000E+02,      /* I = 45 */
(PID.TID 0000.0001)                 1.279687500000000E+02,      /* I = 46 */
(PID.TID 0000.0001)                 1.307812500000000E+02,      /* I = 47 */
(PID.TID 0000.0001)                 1.335937500000000E+02,      /* I = 48 */
(PID.TID 0000.0001)                 1.364062500000000E+02,      /* I = 49 */
(PID.TID 0000.0001)                 1.392187500000000E+02,      /* I = 50 */
(PID.TID 0000.0001)                 1.420312500000000E+02,      /* I = 51 */
(PID.TID 0000.0001)                 1.448437500000000E+02,      /* I = 52 */
(PID.TID 0000.0001)                 1.476562500000000E+02,      /* I = 53 */
(PID.TID 0000.0001)                 1.504687500000000E+02,      /* I = 54 */
(PID.TID 0000.0001)                 1.532812500000000E+02,      /* I = 55 */
(PID.TID 0000.0001)                 1.560937500000000E+02,      /* I = 56 */
(PID.TID 0000.0001)                 1.589062500000000E+02,      /* I = 57 */
(PID.TID 0000.0001)                 1.617187500000000E+02,      /* I = 58 */
(PID.TID 0000.0001)                 1.645312500000000E+02,      /* I = 59 */
(PID.TID 0000.0001)                 1.673437500000000E+02,      /* I = 60 */
(PID.TID 0000.0001)                 1.701562500000000E+02,      /* I = 61 */
(PID.TID 0000.0001)                 1.729687500000000E+02,      /* I = 62 */
(PID.TID 0000.0001)                 1.757812500000000E+02,      /* I = 63 */
(PID.TID 0000.0001)                 1.785937500000000E+02,      /* I = 64 */
(PID.TID 0000.0001)                 1.814062500000000E+02,      /* I = 65 */
(PID.TID 0000.0001)                 1.842187500000000E+02,      /* I = 66 */
(PID.TID 0000.0001)                 1.870312500000000E+02,      /* I = 67 */
(PID.TID 0000.0001)                 1.898437500000000E+02,      /* I = 68 */
(PID.TID 0000.0001)                 1.926562500000000E+02,      /* I = 69 */
(PID.TID 0000.0001)                 1.954687500000000E+02,      /* I = 70 */
(PID.TID 0000.0001)                 1.982812500000000E+02,      /* I = 71 */
(PID.TID 0000.0001)                 2.010937500000000E+02,      /* I = 72 */
(PID.TID 0000.0001)                 2.039062500000000E+02,      /* I = 73 */
(PID.TID 0000.0001)                 2.067187500000000E+02,      /* I = 74 */
(PID.TID 0000.0001)                 2.095312500000000E+02,      /* I = 75 */
(PID.TID 0000.0001)                 2.123437500000000E+02,      /* I = 76 */
(PID.TID 0000.0001)                 2.151562500000000E+02,      /* I = 77 */
(PID.TID 0000.0001)                 2.179687500000000E+02,      /* I = 78 */
(PID.TID 0000.0001)                 2.207812500000000E+02,      /* I = 79 */
(PID.TID 0000.0001)                 2.235937500000000E+02,      /* I = 80 */
(PID.TID 0000.0001)                 2.264062500000000E+02,      /* I = 81 */
(PID.TID 0000.0001)                 2.292187500000000E+02,      /* I = 82 */
(PID.TID 0000.0001)                 2.320312500000000E+02,      /* I = 83 */
(PID.TID 0000.0001)                 2.348437500000000E+02,      /* I = 84 */
(PID.TID 0000.0001)                 2.376562500000000E+02,      /* I = 85 */
(PID.TID 0000.0001)                 2.404687500000000E+02,      /* I = 86 */
(PID.TID 0000.0001)                 2.432812500000000E+02,      /* I = 87 */
(PID.TID 0000.0001)                 2.460937500000000E+02,      /* I = 88 */
(PID.TID 0000.0001)                 2.489062500000000E+02,      /* I = 89 */
(PID.TID 0000.0001)                 2.517187500000000E+02,      /* I = 90 */
(PID.TID 0000.0001)                 2.545312500000000E+02,      /* I = 91 */
(PID.TID 0000.0001)                 2.573437500000000E+02,      /* I = 92 */
(PID.TID 0000.0001)                 2.601562500000000E+02,      /* I = 93 */
(PID.TID 0000.0001)                 2.629687500000000E+02,      /* I = 94 */
(PID.TID 0000.0001)                 2.657812500000000E+02,      /* I = 95 */
(PID.TID 0000.0001)                 2.685937500000000E+02,      /* I = 96 */
(PID.TID 0000.0001)                 2.714062500000000E+02,      /* I = 97 */
(PID.TID 0000.0001)                 2.742187500000000E+02,      /* I = 98 */
(PID.TID 0000.0001)                 2.770312500000000E+02,      /* I = 99 */
(PID.TID 0000.0001)                 2.798437500000000E+02,      /* I =100 */
(PID.TID 0000.0001)                 2.826562500000000E+02,      /* I =101 */
(PID.TID 0000.0001)                 2.854687500000000E+02,      /* I =102 */
(PID.TID 0000.0001)                 2.882812500000000E+02,      /* I =103 */
(PID.TID 0000.0001)                 2.910937500000000E+02,      /* I =104 */
(PID.TID 0000.0001)                 2.939062500000000E+02,      /* I =105 */
(PID.TID 0000.0001)                 2.967187500000000E+02,      /* I =106 */
(PID.TID 0000.0001)                 2.995312500000000E+02,      /* I =107 */
(PID.TID 0000.0001)                 3.023437500000000E+02,      /* I =108 */
(PID.TID 0000.0001)                 3.051562500000000E+02,      /* I =109 */
(PID.TID 0000.0001)                 3.079687500000000E+02,      /* I =110 */
(PID.TID 0000.0001)                 3.107812500000000E+02,      /* I =111 */
(PID.TID 0000.0001)                 3.135937500000000E+02,      /* I =112 */
(PID.TID 0000.0001)                 3.164062500000000E+02,      /* I =113 */
(PID.TID 0000.0001)                 3.192187500000000E+02,      /* I =114 */
(PID.TID 0000.0001)                 3.220312500000000E+02,      /* I =115 */
(PID.TID 0000.0001)                 3.248437500000000E+02,      /* I =116 */
(PID.TID 0000.0001)                 3.276562500000000E+02,      /* I =117 */
(PID.TID 0000.0001)                 3.304687500000000E+02,      /* I =118 */
(PID.TID 0000.0001)                 3.332812500000000E+02,      /* I =119 */
(PID.TID 0000.0001)                 3.360937500000000E+02,      /* I =120 */
(PID.TID 0000.0001)                 3.389062500000000E+02,      /* I =121 */
(PID.TID 0000.0001)                 3.417187500000000E+02,      /* I =122 */
(PID.TID 0000.0001)                 3.445312500000000E+02,      /* I =123 */
(PID.TID 0000.0001)                 3.473437500000000E+02,      /* I =124 */
(PID.TID 0000.0001)                 3.501562500000000E+02,      /* I =125 */
(PID.TID 0000.0001)                 3.529687500000000E+02,      /* I =126 */
(PID.TID 0000.0001)                 3.557812500000000E+02,      /* I =127 */
(PID.TID 0000.0001)                 3.585937500000000E+02       /* I =128 */
(PID.TID 0000.0001)     ;
(PID.TID 0000.0001) ycoord =   /* P-point Y coord ( m - cartesian, degrees - spherical ) */
(PID.TID 0000.0001)                -3.093750000000000E+01,      /* J =  1 */
(PID.TID 0000.0001)                -2.812500000000000E+01,      /* J =  2 */
(PID.TID 0000.0001)                -2.531250000000000E+01,      /* J =  3 */
(PID.TID 0000.0001)                -2.250000000000000E+01,      /* J =  4 */
(PID.TID 0000.0001)                -1.968750000000000E+01,      /* J =  5 */
(PID.TID 0000.0001)                -1.687500000000000E+01,      /* J =  6 */
(PID.TID 0000.0001)                -1.406250000000000E+01,      /* J =  7 */
(PID.TID 0000.0001)                -1.125000000000000E+01,      /* J =  8 */
(PID.TID 0000.0001)                -8.437500000000000E+00,      /* J =  9 */
(PID.TID 0000.0001)                -5.625000000000000E+00,      /* J = 10 */
(PID.TID 0000.0001)                -2.812500000000000E+00,      /* J = 11 */
(PID.TID 0000.0001)                 0.000000000000000E+00,      /* J = 12 */
(PID.TID 0000.0001)                 2.812500000000000E+00,      /* J = 13 */
(PID.TID 0000.0001)                 5.625000000000000E+00,      /* J = 14 */
(PID.TID 0000.0001)                 8.437500000000000E+00,      /* J = 15 */
(PID.TID 0000.0001)                 1.125000000000000E+01,      /* J = 16 */
(PID.TID 0000.0001)                 1.406250000000000E+01,      /* J = 17 */
(PID.TID 0000.0001)                 1.687500000000000E+01,      /* J = 18 */
(PID.TID 0000.0001)                 1.968750000000000E+01,      /* J = 19 */
(PID.TID 0000.0001)                 2.250000000000000E+01,      /* J = 20 */
(PID.TID 0000.0001)                 2.531250000000000E+01,      /* J = 21 */
(PID.TID 0000.0001)                 2.812500000000000E+01,      /* J = 22 */
(PID.TID 0000.0001)                 3.093750000000000E+01       /* J = 23 */
(PID.TID 0000.0001)     ;
(PID.TID 0000.0001) rcoord =   /* P-point R coordinate (  units of r ) */
(PID.TID 0000.0001)                 9.500000000000000E+04,      /* K =  1 */
(PID.TID 0000.0001)                 7.750000000000000E+04,      /* K =  2 */
(PID.TID 0000.0001)                 5.000000000000000E+04,      /* K =  3 */
(PID.TID 0000.0001)                 2.500000000000000E+04,      /* K =  4 */
(PID.TID 0000.0001)                 7.500000000000000E+03       /* K =  5 */
(PID.TID 0000.0001)     ;
(PID.TID 0000.0001) rF =   /* W-Interf. R coordinate (  units of r ) */
(PID.TID 0000.0001)                 1.000000000000000E+05,      /* K =  1 */
(PID.TID 0000.0001)                 9.000000000000000E+04,      /* K =  2 */
(PID.TID 0000.0001)                 6.500000000000000E+04,      /* K =  3 */
(PID.TID 0000.0001)                 3.500000000000000E+04,      /* K =  4 */
(PID.TID 0000.0001)                 1.500000000000000E+04,      /* K =  5 */
(PID.TID 0000.0001)                 0.000000000000000E+00       /* K =  6 */
(PID.TID 0000.0001)     ;
(PID.TID 0000.0001) dxF =  /* dxF(:,1,:,1) ( m - cartesian, degrees - spherical ) */
(PID.TID 0000.0001)   128 @  2.682002803544621E+05              /* I =  1:128 */
(PID.TID 0000.0001)     ;
(PID.TID 0000.0001) dxF =  /* dxF(1,:,1,:) ( m - cartesian, degrees - spherical ) */
(PID.TID 0000.0001)                 2.682002803544621E+05,      /* J =  1 */
(PID.TID 0000.0001)                 2.757650002472408E+05,      /* J =  2 */
(PID.TID 0000.0001)                 2.826653781002625E+05,      /* J =  3 */
(PID.TID 0000.0001)                 2.888847902988777E+05,      /* J =  4 */
(PID.TID 0000.0001)                 2.944082537343438E+05,      /* J =  5 */
(PID.TID 0000.0001)                 2.992224618994464E+05,      /* J =  6 */
(PID.TID 0000.0001)                 3.033158169450409E+05,      /* J =  7 */
(PID.TID 0000.0001)                 3.066784576202870E+05,      /* J =  8 */
(PID.TID 0000.0001)                 3.093022830292655E+05,      /* J =  9 */
(PID.TID 0000.0001)                 3.111809721467461E+05,      /* J = 10 */
(PID.TID 0000.0001)                 3.123099990460912E+05,      /* J = 11 */
(PID.TID 0000.0001)                 3.126866438026091E+05,      /* J = 12 */
(PID.TID 0000.0001)                 3.123099990460912E+05,      /* J = 13 */
(PID.TID 0000.0001)                 3.111809721467461E+05,      /* J = 14 */
(PID.TID 0000.0001)                 3.093022830292655E+05,      /* J = 15 */
(PID.TID 0000.0001)                 3.066784576202870E+05,      /* J = 16 */
(PID.TID 0000.0001)                 3.033158169450409E+05,      /* J = 17 */
(PID.TID 0000.0001)                 2.992224618994464E+05,      /* J = 18 */
(PID.TID 0000.0001)                 2.944082537343438E+05,      /* J = 19 */
(PID.TID 0000.0001)                 2.888847902988777E+05,      /* J = 20 */
(PID.TID 0000.0001)                 2.826653781002625E+05,      /* J = 21 */
(PID.TID 0000.0001)                 2.757650002472408E+05,      /* J = 22 */
(PID.TID 0000.0001)                 2.682002803544621E+05       /* J = 23 */
(PID.TID 0000.0001)     ;
(PID.TID 0000.0001) dyF =  /* dyF(:,1,:,1) ( m - cartesian, degrees - spherical ) */
(PID.TID 0000.0001)   128 @  3.126866438026091E+05              /* I =  1:128 */
(PID.TID 0000.0001)     ;
(PID.TID 0000.0001) dyF =  /* dyF(1,:,1,:) ( m - cartesian, degrees - spherical ) */
(PID.TID 0000.0001)    23 @  3.126866438026091E+05              /* J =  1: 23 */
(PID.TID 0000.0001)     ;
(PID.TID 0000.0001) dxG =  /* dxG(:,1,:,1) ( m - cartesian, degrees - spherical ) */
(PID.TID 0000.0001)   128 @  2.641744258225996E+05              /* I =  1:128 */
(PID.TID 0000.0001)     ;
(PID.TID 0000.0001) dxG =  /* dxG(1,:,1,:) ( m - cartesian, degrees - spherical ) */
(PID.TID 0000.0001)                 2.641744258225996E+05,      /* J =  1 */
(PID.TID 0000.0001)                 2.720645810660936E+05,      /* J =  2 */
(PID.TID 0000.0001)                 2.792993089037566E+05,      /* J =  3 */
(PID.TID 0000.0001)                 2.858611802425402E+05,      /* J =  4 */
(PID.TID 0000.0001)                 2.917343869596373E+05,      /* J =  5 */
(PID.TID 0000.0001)                 2.969047799856343E+05,      /* J =  6 */
(PID.TID 0000.0001)                 3.013599033908587E+05,      /* J =  7 */
(PID.TID 0000.0001)                 3.050890243928044E+05,      /* J =  8 */
(PID.TID 0000.0001)                 3.080831592123453E+05,      /* J =  9 */
(PID.TID 0000.0001)                 3.103350947164461E+05,      /* J = 10 */
(PID.TID 0000.0001)                 3.118394057952310E+05,      /* J = 11 */
(PID.TID 0000.0001)     2 @  3.125924684315491E+05,             /* J = 12: 13 */
(PID.TID 0000.0001)                 3.118394057952310E+05,      /* J = 14 */
(PID.TID 0000.0001)                 3.103350947164461E+05,      /* J = 15 */
(PID.TID 0000.0001)                 3.080831592123453E+05,      /* J = 16 */
(PID.TID 0000.0001)                 3.050890243928044E+05,      /* J = 17 */
(PID.TID 0000.0001)                 3.013599033908587E+05,      /* J = 18 */
(PID.TID 0000.0001)                 2.969047799856343E+05,      /* J = 19 */
(PID.TID 0000.0001)                 2.917343869596373E+05,      /* J = 20 */
(PID.TID 0000.0001)                 2.858611802425402E+05,      /* J = 21 */
(PID.TID 0000.0001)                 2.792993089037566E+05,      /* J = 22 */
(PID.TID 0000.0001)                 2.720645810660936E+05       /* J = 23 */
(PID.TID 0000.0001)     ;
(PID.TID 0000.0001) dyG =  /* dyG(:,1,:,1) ( m - cartesian, degrees - spherical ) */
(PID.TID 0000.0001)   128 @  3.126866438026091E+05              /* I =  1:128 */
(PID.TID 0000.0001)     ;
(PID.TID 0000.0001) dyG =  /* dyG(1,:,1,:) ( m - cartesian, degrees - spherical ) */
(PID.TID 0000.0001)    23 @  3.126866438026091E+05              /* J =  1: 23 */
(PID.TID 0000.0001)     ;
(PID.TID 0000.0001) dxC =  /* dxC(:,1,:,1) ( m - cartesian, degrees - spherical ) */
(PID.TID 0000.0001)   128 @  2.682002803544621E+05              /* I =  1:128 */
(PID.TID 0000.0001)     ;
(PID.TID 0000.0001) dxC =  /* dxC(1,:,1,:) ( m - cartesian, degrees - spherical ) */
(PID.TID 0000.0001)                 2.682002803544621E+05,      /* J =  1 */
(PID.TID 0000.0001)                 2.757650002472408E+05,      /* J =  2 */
(PID.TID 0000.0001)                 2.826653781002625E+05,      /* J =  3 */
(PID.TID 0000.0001)                 2.888847902988777E+05,      /* J =  4 */
(PID.TID 0000.0001)                 2.944082537343438E+05,      /* J =  5 */
(PID.TID 0000.0001)                 2.992224618994464E+05,      /* J =  6 */
(PID.TID 0000.0001)                 3.033158169450409E+05,      /* J =  7 */
(PID.TID 0000.0001)                 3.066784576202870E+05,      /* J =  8 */
(PID.TID 0000.0001)                 3.093022830292655E+05,      /* J =  9 */
(PID.TID 0000.0001)                 3.111809721467461E+05,      /* J = 10 */
(PID.TID 0000.0001)                 3.123099990460912E+05,      /* J = 11 */
(PID.TID 0000.0001)                 3.126866438026091E+05,      /* J = 12 */
(PID.TID 0000.0001)                 3.123099990460912E+05,      /* J = 13 */
(PID.TID 0000.0001)                 3.111809721467461E+05,      /* J = 14 */
(PID.TID 0000.0001)                 3.093022830292655E+05,      /* J = 15 */
(PID.TID 0000.0001)                 3.066784576202870E+05,      /* J = 16 */
(PID.TID 0000.0001)                 3.033158169450409E+05,      /* J = 17 */
(PID.TID 0000.0001)                 2.992224618994464E+05,      /* J = 18 */
(PID.TID 0000.0001)                 2.944082537343438E+05,      /* J = 19 */
(PID.TID 0000.0001)                 2.888847902988777E+05,      /* J = 20 */
(PID.TID 0000.0001)                 2.826653781002625E+05,      /* J = 21 */
(PID.TID 0000.0001)                 2.757650002472408E+05,      /* J = 22 */
(PID.TID 0000.0001)                 2.682002803544621E+05       /* J = 23 */
(PID.TID 0000.0001)     ;
(PID.TID 0000.0001) dyC =  /* dyC(:,1,:,1) ( m - cartesian, degrees - spherical ) */
(PID.TID 0000.0001)   128 @  3.126866438026091E+05              /* I =  1:128 */
(PID.TID 0000.0001)     ;
(PID.TID 0000.0001) dyC =  /* dyC(1,:,1,:) ( m - cartesian, degrees - spherical ) */
(PID.TID 0000.0001)    23 @  3.126866438026091E+05              /* J =  1: 23 */
(PID.TID 0000.0001)     ;
(PID.TID 0000.0001) dxV =  /* dxV(:,1,:,1) ( m - cartesian, degrees - spherical ) */
(PID.TID 0000.0001)   128 @  2.641744258225996E+05              /* I =  1:128 */
(PID.TID 0000.0001)     ;
(PID.TID 0000.0001) dxV =  /* dxV(1,:,1,:) ( m - cartesian, degrees - spherical ) */
(PID.TID 0000.0001)                 2.641744258225996E+05,      /* J =  1 */
(PID.TID 0000.0001)                 2.720645810660936E+05,      /* J =  2 */
(PID.TID 0000.0001)                 2.792993089037566E+05,      /* J =  3 */
(PID.TID 0000.0001)                 2.858611802425402E+05,      /* J =  4 */
(PID.TID 0000.0001)                 2.917343869596373E+05,      /* J =  5 */
(PID.TID 0000.0001)                 2.969047799856343E+05,      /* J =  6 */
(PID.TID 0000.0001)                 3.013599033908587E+05,      /* J =  7 */
(PID.TID 0000.0001)                 3.050890243928044E+05,      /* J =  8 */
(PID.TID 0000.0001)                 3.080831592123453E+05,      /* J =  9 */
(PID.TID 0000.0001)                 3.103350947164461E+05,      /* J = 10 */
(PID.TID 0000.0001)                 3.118394057952310E+05,      /* J = 11 */
(PID.TID 0000.0001)     2 @  3.125924684315491E+05,             /* J = 12: 13 */
(PID.TID 0000.0001)                 3.118394057952310E+05,      /* J = 14 */
(PID.TID 0000.0001)                 3.103350947164461E+05,      /* J = 15 */
(PID.TID 0000.0001)                 3.080831592123453E+05,      /* J = 16 */
(PID.TID 0000.0001)                 3.050890243928044E+05,      /* J = 17 */
(PID.TID 0000.0001)                 3.013599033908587E+05,      /* J = 18 */
(PID.TID 0000.0001)                 2.969047799856343E+05,      /* J = 19 */
(PID.TID 0000.0001)                 2.917343869596373E+05,      /* J = 20 */
(PID.TID 0000.0001)                 2.858611802425402E+05,      /* J = 21 */
(PID.TID 0000.0001)                 2.792993089037566E+05,      /* J = 22 */
(PID.TID 0000.0001)                 2.720645810660936E+05       /* J = 23 */
(PID.TID 0000.0001)     ;
(PID.TID 0000.0001) dyU =  /* dyU(:,1,:,1) ( m - cartesian, degrees - spherical ) */
(PID.TID 0000.0001)   128 @  3.126866438026091E+05              /* I =  1:128 */
(PID.TID 0000.0001)     ;
(PID.TID 0000.0001) dyU =  /* dyU(1,:,1,:) ( m - cartesian, degrees - spherical ) */
(PID.TID 0000.0001)    23 @  3.126866438026091E+05              /* J =  1: 23 */
(PID.TID 0000.0001)     ;
(PID.TID 0000.0001) rA =  /* rA(:,1,:,1) ( m - cartesian, degrees - spherical ) */
(PID.TID 0000.0001)   128 @  8.385422607492099E+10              /* I =  1:128 */
(PID.TID 0000.0001)     ;
(PID.TID 0000.0001) rA =  /* rA(1,:,1,:) ( m - cartesian, degrees - spherical ) */
(PID.TID 0000.0001)                 8.385422607492099E+10,      /* J =  1 */
(PID.TID 0000.0001)                 8.621937547463147E+10,      /* J =  2 */
(PID.TID 0000.0001)                 8.837681484689810E+10,      /* J =  3 */
(PID.TID 0000.0001)                 9.032134673130382E+10,      /* J =  4 */
(PID.TID 0000.0001)                 9.204828658021820E+10,      /* J =  5 */
(PID.TID 0000.0001)                 9.355347404428316E+10,      /* J =  6 */
(PID.TID 0000.0001)                 9.483328299505894E+10,      /* J =  7 */
(PID.TID 0000.0001)                 9.588463026068498E+10,      /* J =  8 */
(PID.TID 0000.0001)                 9.670498305351137E+10,      /* J =  9 */
(PID.TID 0000.0001)                 9.729236507180573E+10,      /* J = 10 */
(PID.TID 0000.0001)                 9.764536126083739E+10,      /* J = 11 */
(PID.TID 0000.0001)                 9.776312122186816E+10,      /* J = 12 */
(PID.TID 0000.0001)                 9.764536126083739E+10,      /* J = 13 */
(PID.TID 0000.0001)                 9.729236507180573E+10,      /* J = 14 */
(PID.TID 0000.0001)                 9.670498305351137E+10,      /* J = 15 */
(PID.TID 0000.0001)                 9.588463026068498E+10,      /* J = 16 */
(PID.TID 0000.0001)                 9.483328299505894E+10,      /* J = 17 */
(PID.TID 0000.0001)                 9.355347404428316E+10,      /* J = 18 */
(PID.TID 0000.0001)                 9.204828658021820E+10,      /* J = 19 */
(PID.TID 0000.0001)                 9.032134673130382E+10,      /* J = 20 */
(PID.TID 0000.0001)                 8.837681484689810E+10,      /* J = 21 */
(PID.TID 0000.0001)                 8.621937547463147E+10,      /* J = 22 */
(PID.TID 0000.0001)                 8.385422607492099E+10       /* J = 23 */
(PID.TID 0000.0001)     ;
(PID.TID 0000.0001) rAw =  /* rAw(:,1,:,1) ( m - cartesian, degrees - spherical ) */
(PID.TID 0000.0001)   128 @  8.385422607492099E+10              /* I =  1:128 */
(PID.TID 0000.0001)     ;
(PID.TID 0000.0001) rAw =  /* rAw(1,:,1,:) ( m - cartesian, degrees - spherical ) */
(PID.TID 0000.0001)                 8.385422607492099E+10,      /* J =  1 */
(PID.TID 0000.0001)                 8.621937547463147E+10,      /* J =  2 */
(PID.TID 0000.0001)                 8.837681484689810E+10,      /* J =  3 */
(PID.TID 0000.0001)                 9.032134673130382E+10,      /* J =  4 */
(PID.TID 0000.0001)                 9.204828658021820E+10,      /* J =  5 */
(PID.TID 0000.0001)                 9.355347404428316E+10,      /* J =  6 */
(PID.TID 0000.0001)                 9.483328299505894E+10,      /* J =  7 */
(PID.TID 0000.0001)                 9.588463026068498E+10,      /* J =  8 */
(PID.TID 0000.0001)                 9.670498305351137E+10,      /* J =  9 */
(PID.TID 0000.0001)                 9.729236507180573E+10,      /* J = 10 */
(PID.TID 0000.0001)                 9.764536126083739E+10,      /* J = 11 */
(PID.TID 0000.0001)                 9.776312122186816E+10,      /* J = 12 */
(PID.TID 0000.0001)                 9.764536126083739E+10,      /* J = 13 */
(PID.TID 0000.0001)                 9.729236507180573E+10,      /* J = 14 */
(PID.TID 0000.0001)                 9.670498305351137E+10,      /* J = 15 */
(PID.TID 0000.0001)                 9.588463026068498E+10,      /* J = 16 */
(PID.TID 0000.0001)                 9.483328299505894E+10,      /* J = 17 */
(PID.TID 0000.0001)                 9.355347404428316E+10,      /* J = 18 */
(PID.TID 0000.0001)                 9.204828658021820E+10,      /* J = 19 */
(PID.TID 0000.0001)                 9.032134673130382E+10,      /* J = 20 */
(PID.TID 0000.0001)                 8.837681484689810E+10,      /* J = 21 */
(PID.TID 0000.0001)                 8.621937547463147E+10,      /* J = 22 */
(PID.TID 0000.0001)                 8.385422607492099E+10       /* J = 23 */
(PID.TID 0000.0001)     ;
(PID.TID 0000.0001) rAs =  /* rAs(:,1,:,1) ( m - cartesian, degrees - spherical ) */
(PID.TID 0000.0001)   128 @  8.259552151423453E+10              /* I =  1:128 */
(PID.TID 0000.0001)     ;
(PID.TID 0000.0001) rAs =  /* rAs(1,:,1,:) ( m - cartesian, degrees - spherical ) */
(PID.TID 0000.0001)                 8.259552151423453E+10,      /* J =  1 */
(PID.TID 0000.0001)                 8.506241998533157E+10,      /* J =  2 */
(PID.TID 0000.0001)                 8.732439563609564E+10,      /* J =  3 */
(PID.TID 0000.0001)                 8.937599916905875E+10,      /* J =  4 */
(PID.TID 0000.0001)                 9.121228809161064E+10,      /* J =  5 */
(PID.TID 0000.0001)                 9.282883862289697E+10,      /* J =  6 */
(PID.TID 0000.0001)                 9.422175635109477E+10,      /* J =  7 */
(PID.TID 0000.0001)                 9.538768561539165E+10,      /* J =  8 */
(PID.TID 0000.0001)                 9.632381759006653E+10,      /* J =  9 */
(PID.TID 0000.0001)                 9.702789705119699E+10,      /* J = 10 */
(PID.TID 0000.0001)                 9.749822780969106E+10,      /* J = 11 */
(PID.TID 0000.0001)     2 @  9.773367679755542E+10,             /* J = 12: 13 */
(PID.TID 0000.0001)                 9.749822780969106E+10,      /* J = 14 */
(PID.TID 0000.0001)                 9.702789705119699E+10,      /* J = 15 */
(PID.TID 0000.0001)                 9.632381759006653E+10,      /* J = 16 */
(PID.TID 0000.0001)                 9.538768561539165E+10,      /* J = 17 */
(PID.TID 0000.0001)                 9.422175635109477E+10,      /* J = 18 */
(PID.TID 0000.0001)                 9.282883862289697E+10,      /* J = 19 */
(PID.TID 0000.0001)                 9.121228809161064E+10,      /* J = 20 */
(PID.TID 0000.0001)                 8.937599916905875E+10,      /* J = 21 */
(PID.TID 0000.0001)                 8.732439563609564E+10,      /* J = 22 */
(PID.TID 0000.0001)                 8.506241998533157E+10       /* J = 23 */
(PID.TID 0000.0001)     ;
(PID.TID 0000.0001) 
(PID.TID 0000.0001)  MDSREADFIELD: opening global file: pickup.0000008640
(PID.TID 0000.0001)  MDSREADFIELD: opening global file: pickup.0000008640
(PID.TID 0000.0001)  MDSREADFIELD: opening global file: pickup.0000008640
(PID.TID 0000.0001)  MDSREADFIELD: opening global file: pickup.0000008640
(PID.TID 0000.0001)  MDSREADFIELD: opening global file: pickup.0000008640
(PID.TID 0000.0001)  MDSREADFIELD: opening global file: pickup.0000008640
(PID.TID 0000.0001)  MDSREADFIELD: opening global file: pickup.0000008640
(PID.TID 0000.0001)  MDSREADFIELD: opening global file: pickup.0000008640
(PID.TID 0000.0001)  MDSREADFIELD: opening global file: pickup.0000008640
(PID.TID 0000.0001)  MDSREADFIELD: opening global file: pickup.0000008640
(PID.TID 0000.0001)  MDSREADFIELD: opening global file: pickup.0000008640
(PID.TID 0000.0001)  MDSREADFIELD: opening global file: pickup.0000008640
(PID.TID 0000.0001)  MDSREADFIELD: opening global file: pickup.0000008640
(PID.TID 0000.0001) // =======================================================
(PID.TID 0000.0001) // Model current state
(PID.TID 0000.0001) // =======================================================
(PID.TID 0000.0001) 
(PID.TID 0000.0001) // =======================================================
(PID.TID 0000.0001) // Begin MONITOR dynamic field statistics
(PID.TID 0000.0001) // =======================================================
(PID.TID 0000.0001) %MON time_tsnumber                =                  8640
(PID.TID 0000.0001) %MON time_secondsf                =   5.1840000000000E+06
(PID.TID 0000.0001) %MON dynstat_eta_max              =   9.9081369162055E+02
(PID.TID 0000.0001) %MON dynstat_eta_min              =  -1.4582900287715E+03
(PID.TID 0000.0001) %MON dynstat_eta_mean             =   1.4036291302900E-12
(PID.TID 0000.0001) %MON dynstat_eta_sd               =   4.5582161709330E+02
(PID.TID 0000.0001) %MON dynstat_eta_del2             =   1.0859423741222E+01
(PID.TID 0000.0001) %MON dynstat_uvel_max             =   4.4357708337580E+01
(PID.TID 0000.0001) %MON dynstat_uvel_min             =  -3.1059614843420E+01
(PID.TID 0000.0001) %MON dynstat_uvel_mean            =   4.0503400037876E+00
(PID.TID 0000.0001) %MON dynstat_uvel_sd              =   1.0388463310759E+01
(PID.TID 0000.0001) %MON dynstat_uvel_del2            =   6.6704321251628E-01
(PID.TID 0000.0001) %MON dynstat_vvel_max             =   2.1911876971900E+01
(PID.TID 0000.0001) %MON dynstat_vvel_min             =  -4.0207466640580E+01
(PID.TID 0000.0001) %MON dynstat_vvel_mean            =  -7.3016145430769E-03
(PID.TID 0000.0001) %MON dynstat_vvel_sd              =   4.3075886333739E+00
(PID.TID 0000.0001) %MON dynstat_vvel_del2            =   3.3665568285528E-01
(PID.TID 0000.0001) %MON dynstat_wvel_max             =   7.6947054867924E-01
(PID.TID 0000.0001) %MON dynstat_wvel_min             =  -2.0845225302944E+00
(PID.TID 0000.0001) %MON dynstat_wvel_mean            =  -1.0290408328630E-18
(PID.TID 0000.0001) %MON dynstat_wvel_sd              =   9.9800652143237E-02
(PID.TID 0000.0001) %MON dynstat_wvel_del2            =   1.0741940547841E-02
(PID.TID 0000.0001) %MON dynstat_theta_max            =   4.5722276153770E+02
(PID.TID 0000.0001) %MON dynstat_theta_min            =   3.0716268125663E+02
(PID.TID 0000.0001) %MON dynstat_theta_mean           =   3.6631630706424E+02
(PID.TID 0000.0001) %MON dynstat_theta_sd             =   3.6657496851854E+01
(PID.TID 0000.0001) %MON dynstat_theta_del2           =   2.5639645286218E-01
(PID.TID 0000.0001) %MON dynstat_salt_max             =   5.8435140722437E+01
(PID.TID 0000.0001) %MON dynstat_salt_min             =  -5.4714594385799E+00
(PID.TID 0000.0001) %MON dynstat_salt_mean            =   1.2319139276195E+01
(PID.TID 0000.0001) %MON dynstat_salt_sd              =   1.0792346534731E+01
(PID.TID 0000.0001) %MON dynstat_salt_del2            =   2.4242881426308E-01
(PID.TID 0000.0001) %MON advcfl_uvel_max              =   8.7745588972601E-02
(PID.TID 0000.0001) %MON advcfl_vvel_max              =   7.7152255980518E-02
(PID.TID 0000.0001) %MON advcfl_wvel_max              =   6.1589983693288E-02
(PID.TID 0000.0001) %MON advcfl_W_hf_max              =   6.1589983693288E-02
(PID.TID 0000.0001) %MON pe_b_mean                    =   1.0388667330479E+00
(PID.TID 0000.0001) %MON ke_max                       =   1.0838095337949E+03
(PID.TID 0000.0001) %MON ke_mean                      =   7.1085185802690E+01
(PID.TID 0000.0001) %MON ke_vol                       =   2.7279762099326E+19
(PID.TID 0000.0001) %MON vort_r_min                   =  -9.1565478957723E-05
(PID.TID 0000.0001) %MON vort_r_max                   =   9.1131077753074E-05
(PID.TID 0000.0001) %MON vort_a_mean                  =  -3.0139331989882E-06
(PID.TID 0000.0001) %MON vort_a_sd                    =   4.9823001511907E-05
(PID.TID 0000.0001) %MON vort_p_mean                  =  -3.0735077850769E-06
(PID.TID 0000.0001) %MON vort_p_sd                    =   5.2787827480619E-05
(PID.TID 0000.0001) %MON surfExpan_theta_mean         =  -2.2653837818164E-03
(PID.TID 0000.0001) %MON surfExpan_salt_mean          =  -1.1827117423035E-03
(PID.TID 0000.0001) %MON surfExpan_Heat_mean          =  -2.2847664256418E-01
(PID.TID 0000.0001) %MON En_Budget_T2PE_mean          =   3.9754094118340E+00
(PID.TID 0000.0001) // =======================================================
(PID.TID 0000.0001) // End MONITOR dynamic field statistics
(PID.TID 0000.0001) // =======================================================
 cg2d: Sum(rhs),rhsMax =  -9.61131263466086E-09  3.11008942678193E+03
(PID.TID 0000.0001)                    cg2d_init_res =    3.10098218431819E+02
(PID.TID 0000.0001)                       cg2d_iters =    16
(PID.TID 0000.0001)                         cg2d_res =    6.28974409448785E-13
(PID.TID 0000.0001) // =======================================================
(PID.TID 0000.0001) // Begin MONITOR dynamic field statistics
(PID.TID 0000.0001) // =======================================================
(PID.TID 0000.0001) %MON time_tsnumber                =                  8641
(PID.TID 0000.0001) %MON time_secondsf                =   5.1846000000000E+06
(PID.TID 0000.0001) %MON dynstat_eta_max              =   9.8936427871853E+02
(PID.TID 0000.0001) %MON dynstat_eta_min              =  -1.4610182701017E+03
(PID.TID 0000.0001) %MON dynstat_eta_mean             =   1.4446089827143E-12
(PID.TID 0000.0001) %MON dynstat_eta_sd               =   4.5595669088411E+02
(PID.TID 0000.0001) %MON dynstat_eta_del2             =   1.1428365429570E+01
(PID.TID 0000.0001) %MON dynstat_uvel_max             =   4.4247227613387E+01
(PID.TID 0000.0001) %MON dynstat_uvel_min             =  -3.1344019570382E+01
(PID.TID 0000.0001) %MON dynstat_uvel_mean            =   4.0507761997992E+00
(PID.TID 0000.0001) %MON dynstat_uvel_sd              =   1.0388577219715E+01
(PID.TID 0000.0001) %MON dynstat_uvel_del2            =   6.6705020754731E-01
(PID.TID 0000.0001) %MON dynstat_vvel_max             =   2.1961818138517E+01
(PID.TID 0000.0001) %MON dynstat_vvel_min             =  -4.0048900364917E+01
(PID.TID 0000.0001) %MON dynstat_vvel_mean            =  -7.1851507944024E-03
(PID.TID 0000.0001) %MON dynstat_vvel_sd              =   4.3087662194075E+00
(PID.TID 0000.0001) %MON dynstat_vvel_del2            =   3.3667128064211E-01
(PID.TID 0000.0001) %MON dynstat_wvel_max             =   7.7534268611196E-01
(PID.TID 0000.0001) %MON dynstat_wvel_min             =  -2.0722083023290E+00
(PID.TID 0000.0001) %MON dynstat_wvel_mean            =  -2.7451555046259E-18
(PID.TID 0000.0001) %MON dynstat_wvel_sd              =   9.9815425466735E-02
(PID.TID 0000.0001) %MON dynstat_wvel_del2            =   1.0811437794582E-02
(PID.TID 0000.0001) %MON dynstat_theta_max            =   4.5723736650747E+02
(PID.TID 0000.0001) %MON dynstat_theta_min            =   3.0711412013052E+02
(PID.TID 0000.0001) %MON dynstat_theta_mean           =   3.6631698914773E+02
(PID.TID 0000.0001) %MON dynstat_theta_sd             =   3.6657050633187E+01
(PID.TID 0000.0001) %MON dynstat_theta_del2           =   2.5642513063273E-01
(PID.TID 0000.0001) %MON dynstat_salt_max             =   5.8427897644438E+01
(PID.TID 0000.0001) %MON dynstat_salt_min             =  -5.4704070454916E+00
(PID.TID 0000.0001) %MON dynstat_salt_mean            =   1.2319182459293E+01
(PID.TID 0000.0001) %MON dynstat_salt_sd              =   1.0792305745806E+01
(PID.TID 0000.0001) %MON dynstat_salt_del2            =   2.4238687394629E-01
(PID.TID 0000.0001) %MON advcfl_uvel_max              =   8.7527043051772E-02
(PID.TID 0000.0001) %MON advcfl_vvel_max              =   7.6847990456923E-02
(PID.TID 0000.0001) %MON advcfl_wvel_max              =   6.1102040050703E-02
(PID.TID 0000.0001) %MON advcfl_W_hf_max              =   6.1102040050703E-02
(PID.TID 0000.0001) %MON pe_b_mean                    =   1.0394825198101E+00
(PID.TID 0000.0001) %MON ke_max                       =   1.0816642001088E+03
(PID.TID 0000.0001) %MON ke_mean                      =   7.1093011069110E+01
(PID.TID 0000.0001) %MON ke_vol                       =   2.7279762099326E+19
(PID.TID 0000.0001) %MON vort_r_min                   =  -9.1512178460689E-05
(PID.TID 0000.0001) %MON vort_r_max                   =   9.1244429848932E-05
(PID.TID 0000.0001) %MON vort_a_mean                  =  -3.0139379982255E-06
(PID.TID 0000.0001) %MON vort_a_sd                    =   4.9823474835334E-05
(PID.TID 0000.0001) %MON vort_p_mean                  =  -3.0735126791778E-06
(PID.TID 0000.0001) %MON vort_p_sd                    =   5.2788177741032E-05
(PID.TID 0000.0001) %MON surfExpan_theta_mean         =  -2.1982418674001E-03
(PID.TID 0000.0001) %MON surfExpan_salt_mean          =  -1.1737384761732E-03
(PID.TID 0000.0001) %MON surfExpan_Heat_mean          =  -2.2170500444075E-01
(PID.TID 0000.0001) %MON En_Budget_T2PE_mean          =   3.9739237191490E+00
(PID.TID 0000.0001) // =======================================================
(PID.TID 0000.0001) // End MONITOR dynamic field statistics
(PID.TID 0000.0001) // =======================================================
 cg2d: Sum(rhs),rhsMax =  -9.26365828490816E-09  3.11607101477760E+03
(PID.TID 0000.0001)                    cg2d_init_res =    7.49406035558341E+02
(PID.TID 0000.0001)                       cg2d_iters =    16
(PID.TID 0000.0001)                         cg2d_res =    8.35644993338636E-13
(PID.TID 0000.0001) // =======================================================
(PID.TID 0000.0001) // Begin MONITOR dynamic field statistics
(PID.TID 0000.0001) // =======================================================
(PID.TID 0000.0001) %MON time_tsnumber                =                  8642
(PID.TID 0000.0001) %MON time_secondsf                =   5.1852000000000E+06
(PID.TID 0000.0001) %MON dynstat_eta_max              =   9.8862620497843E+02
(PID.TID 0000.0001) %MON dynstat_eta_min              =  -1.4632948771022E+03
(PID.TID 0000.0001) %MON dynstat_eta_mean             =   1.4913301562846E-12
(PID.TID 0000.0001) %MON dynstat_eta_sd               =   4.5611829228880E+02
(PID.TID 0000.0001) %MON dynstat_eta_del2             =   1.2131037495047E+01
(PID.TID 0000.0001) %MON dynstat_uvel_max             =   4.4156691993604E+01
(PID.TID 0000.0001) %MON dynstat_uvel_min             =  -3.1611858166203E+01
(PID.TID 0000.0001) %MON dynstat_uvel_mean            =   4.0512151235708E+00
(PID.TID 0000.0001) %MON dynstat_uvel_sd              =   1.0388663464057E+01
(PID.TID 0000.0001) %MON dynstat_uvel_del2            =   6.6705712825340E-01
(PID.TID 0000.0001) %MON dynstat_vvel_max             =   2.1994641691055E+01
(PID.TID 0000.0001) %MON dynstat_vvel_min             =  -3.9906597128252E+01
(PID.TID 0000.0001) %MON dynstat_vvel_mean            =  -7.0701959425432E-03
(PID.TID 0000.0001) %MON dynstat_vvel_sd              =   4.3099529725180E+00
(PID.TID 0000.0001) %MON dynstat_vvel_del2            =   3.3703011452488E-01
(PID.TID 0000.0001) %MON dynstat_wvel_max             =   7.7963342072235E-01
(PID.TID 0000.0001) %MON dynstat_wvel_min             =  -2.0602619733467E+00
(PID.TID 0000.0001) %MON dynstat_wvel_mean            =  -6.2673430770767E-19
(PID.TID 0000.0001) %MON dynstat_wvel_sd              =   9.9722935302725E-02
(PID.TID 0000.0001) %MON dynstat_wvel_del2            =   1.0584790435176E-02
(PID.TID 0000.0001) %MON dynstat_theta_max            =   4.5725204000099E+02
(PID.TID 0000.0001) %MON dynstat_theta_min            =   3.0706697134589E+02
(PID.TID 0000.0001) %MON dynstat_theta_mean           =   3.6631766749497E+02
(PID.TID 0000.0001) %MON dynstat_theta_sd             =   3.6656599312407E+01
(PID.TID 0000.0001) %MON dynstat_theta_del2           =   2.5647905928426E-01
(PID.TID 0000.0001) %MON dynstat_salt_max             =   5.8422790123523E+01
(PID.TID 0000.0001) %MON dynstat_salt_min             =  -5.4701298786551E+00
(PID.TID 0000.0001) %MON dynstat_salt_mean            =   1.2319021516171E+01
(PID.TID 0000.0001) %MON dynstat_salt_sd              =   1.0792607492963E+01
(PID.TID 0000.0001) %MON dynstat_salt_del2            =   2.4241842406896E-01
(PID.TID 0000.0001) %MON advcfl_uvel_max              =   8.7347951264154E-02
(PID.TID 0000.0001) %MON advcfl_vvel_max              =   7.6574931329866E-02
(PID.TID 0000.0001) %MON advcfl_wvel_max              =   6.0619864992535E-02
(PID.TID 0000.0001) %MON advcfl_W_hf_max              =   6.0619864992535E-02
(PID.TID 0000.0001) %MON pe_b_mean                    =   1.0402194828024E+00
(PID.TID 0000.0001) %MON ke_max                       =   1.0794089405387E+03
(PID.TID 0000.0001) %MON ke_mean                      =   7.1100599489355E+01
(PID.TID 0000.0001) %MON ke_vol                       =   2.7279762099326E+19
(PID.TID 0000.0001) %MON vort_r_min                   =  -9.1460087033832E-05
(PID.TID 0000.0001) %MON vort_r_max                   =   9.1312406246261E-05
(PID.TID 0000.0001) %MON vort_a_mean                  =  -3.0139427409019E-06
(PID.TID 0000.0001) %MON vort_a_sd                    =   4.9824028990859E-05
(PID.TID 0000.0001) %MON vort_p_mean                  =  -3.0735175155997E-06
(PID.TID 0000.0001) %MON vort_p_sd                    =   5.2788616154404E-05
(PID.TID 0000.0001) %MON surfExpan_theta_mean         =  -2.2193956062188E-03
(PID.TID 0000.0001) %MON surfExpan_salt_mean          =  -1.1464508975609E-03
(PID.TID 0000.0001) %MON surfExpan_Heat_mean          =  -2.2383847748040E-01
(PID.TID 0000.0001) %MON En_Budget_T2PE_mean          =   3.9737979963638E+00
(PID.TID 0000.0001) // =======================================================
(PID.TID 0000.0001) // End MONITOR dynamic field statistics
(PID.TID 0000.0001) // =======================================================
 cg2d: Sum(rhs),rhsMax =  -9.73750502453186E-09  3.12288359600981E+03
(PID.TID 0000.0001)                    cg2d_init_res =    1.42371953841319E+03
(PID.TID 0000.0001)                       cg2d_iters =    16
(PID.TID 0000.0001)                         cg2d_res =    1.02303493652214E-12
(PID.TID 0000.0001) // =======================================================
(PID.TID 0000.0001) // Begin MONITOR dynamic field statistics
(PID.TID 0000.0001) // =======================================================
(PID.TID 0000.0001) %MON time_tsnumber                =                  8643
(PID.TID 0000.0001) %MON time_secondsf                =   5.1858000000000E+06
(PID.TID 0000.0001) %MON dynstat_eta_max              =   9.8844326554639E+02
(PID.TID 0000.0001) %MON dynstat_eta_min              =  -1.4653009117912E+03
(PID.TID 0000.0001) %MON dynstat_eta_mean             =   1.3827089973386E-12
(PID.TID 0000.0001) %MON dynstat_eta_sd               =   4.5628089006876E+02
(PID.TID 0000.0001) %MON dynstat_eta_del2             =   1.2796260200660E+01
(PID.TID 0000.0001) %MON dynstat_uvel_max             =   4.4078981337820E+01
(PID.TID 0000.0001) %MON dynstat_uvel_min             =  -3.1857985260618E+01
(PID.TID 0000.0001) %MON dynstat_uvel_mean            =   4.0516524257870E+00
(PID.TID 0000.0001) %MON dynstat_uvel_sd              =   1.0388750121506E+01
(PID.TID 0000.0001) %MON dynstat_uvel_del2            =   6.6706144888614E-01
(PID.TID 0000.0001) %MON dynstat_vvel_max             =   2.2012603468771E+01
(PID.TID 0000.0001) %MON dynstat_vvel_min             =  -3.9767824002626E+01
(PID.TID 0000.0001) %MON dynstat_vvel_mean            =  -6.9535421339371E-03
(PID.TID 0000.0001) %MON dynstat_vvel_sd              =   4.3111123466363E+00
(PID.TID 0000.0001) %MON dynstat_vvel_del2            =   3.3742766811185E-01
(PID.TID 0000.0001) %MON dynstat_wvel_max             =   7.8097862768455E-01
(PID.TID 0000.0001) %MON dynstat_wvel_min             =  -2.0500883175169E+00
(PID.TID 0000.0001) %MON dynstat_wvel_mean            =  -5.2639162231992E-18
(PID.TID 0000.0001) %MON dynstat_wvel_sd              =   9.9644954102522E-02
(PID.TID 0000.0001) %MON dynstat_wvel_del2            =   1.0379937812925E-02
(PID.TID 0000.0001) %MON dynstat_theta_max            =   4.5726682044983E+02
(PID.TID 0000.0001) %MON dynstat_theta_min            =   3.0702289429338E+02
(PID.TID 0000.0001) %MON dynstat_theta_mean           =   3.6631834688147E+02
(PID.TID 0000.0001) %MON dynstat_theta_sd             =   3.6656143780328E+01
(PID.TID 0000.0001) %MON dynstat_theta_del2           =   2.5649994110015E-01
(PID.TID 0000.0001) %MON dynstat_salt_max             =   5.8417922395613E+01
(PID.TID 0000.0001) %MON dynstat_salt_min             =  -5.4699433380532E+00
(PID.TID 0000.0001) %MON dynstat_salt_mean            =   1.2318936749685E+01
(PID.TID 0000.0001) %MON dynstat_salt_sd              =   1.0792827502034E+01
(PID.TID 0000.0001) %MON dynstat_salt_del2            =   2.4242804065995E-01
(PID.TID 0000.0001) %MON advcfl_uvel_max              =   8.7194229002189E-02
(PID.TID 0000.0001) %MON advcfl_vvel_max              =   7.6308645970303E-02
(PID.TID 0000.0001) %MON advcfl_wvel_max              =   6.0171572676261E-02
(PID.TID 0000.0001) %MON advcfl_W_hf_max              =   6.0171572676261E-02
(PID.TID 0000.0001) %MON pe_b_mean                    =   1.0409612532099E+00
(PID.TID 0000.0001) %MON ke_max                       =   1.0770006568160E+03
(PID.TID 0000.0001) %MON ke_mean                      =   7.1108073750305E+01
(PID.TID 0000.0001) %MON ke_vol                       =   2.7279762099326E+19
(PID.TID 0000.0001) %MON vort_r_min                   =  -9.1407474853897E-05
(PID.TID 0000.0001) %MON vort_r_max                   =   9.1333276674792E-05
(PID.TID 0000.0001) %MON vort_a_mean                  =  -3.0139474097795E-06
(PID.TID 0000.0001) %MON vort_a_sd                    =   4.9824594617911E-05
(PID.TID 0000.0001) %MON vort_p_mean                  =  -3.0735222767642E-06
(PID.TID 0000.0001) %MON vort_p_sd                    =   5.2789062496123E-05
(PID.TID 0000.0001) %MON surfExpan_theta_mean         =  -2.2647828100940E-03
(PID.TID 0000.0001) %MON surfExpan_salt_mean          =  -1.0923182805484E-03
(PID.TID 0000.0001) %MON surfExpan_Heat_mean          =  -2.2841603120002E-01
(PID.TID 0000.0001) %MON En_Budget_T2PE_mean          =   3.9744922598898E+00
(PID.TID 0000.0001) // =======================================================
(PID.TID 0000.0001) // End MONITOR dynamic field statistics
(PID.TID 0000.0001) // =======================================================
 cg2d: Sum(rhs),rhsMax =  -9.53264134295750E-09  3.12971637056256E+03
(PID.TID 0000.0001)                    cg2d_init_res =    1.94818160980024E+03
(PID.TID 0000.0001)                       cg2d_iters =    16
(PID.TID 0000.0001)                         cg2d_res =    1.14136224019956E-12
(PID.TID 0000.0001) // =======================================================
(PID.TID 0000.0001) // Begin MONITOR dynamic field statistics
(PID.TID 0000.0001) // =======================================================
(PID.TID 0000.0001) %MON time_tsnumber                =                  8644
(PID.TID 0000.0001) %MON time_secondsf                =   5.1864000000000E+06
(PID.TID 0000.0001) %MON dynstat_eta_max              =   9.8855852427458E+02
(PID.TID 0000.0001) %MON dynstat_eta_min              =  -1.4669706970731E+03
(PID.TID 0000.0001) %MON dynstat_eta_mean             =   1.3774658476924E-12
(PID.TID 0000.0001) %MON dynstat_eta_sd               =   4.5643834426766E+02
(PID.TID 0000.0001) %MON dynstat_eta_del2             =   1.3395397842294E+01
(PID.TID 0000.0001) %MON dynstat_uvel_max             =   4.3996372754362E+01
(PID.TID 0000.0001) %MON dynstat_uvel_min             =  -3.2088106381796E+01
(PID.TID 0000.0001) %MON dynstat_uvel_mean            =   4.0520881859524E+00
(PID.TID 0000.0001) %MON dynstat_uvel_sd              =   1.0388848774258E+01
(PID.TID 0000.0001) %MON dynstat_uvel_del2            =   6.6706933617613E-01
(PID.TID 0000.0001) %MON dynstat_vvel_max             =   2.2016664573185E+01
(PID.TID 0000.0001) %MON dynstat_vvel_min             =  -3.9623959672839E+01
(PID.TID 0000.0001) %MON dynstat_vvel_mean            =  -6.8315590195113E-03
(PID.TID 0000.0001) %MON dynstat_vvel_sd              =   4.3122283050860E+00
(PID.TID 0000.0001) %MON dynstat_vvel_del2            =   3.3774554061724E-01
(PID.TID 0000.0001) %MON dynstat_wvel_max             =   7.7992134743718E-01
(PID.TID 0000.0001) %MON dynstat_wvel_min             =  -2.0421807631897E+00
(PID.TID 0000.0001) %MON dynstat_wvel_mean            =   4.9392614753532E-18
(PID.TID 0000.0001) %MON dynstat_wvel_sd              =   9.9600276660181E-02
(PID.TID 0000.0001) %MON dynstat_wvel_del2            =   1.0245232846388E-02
(PID.TID 0000.0001) %MON dynstat_theta_max            =   4.5728157854867E+02
(PID.TID 0000.0001) %MON dynstat_theta_min            =   3.0698183087216E+02
(PID.TID 0000.0001) %MON dynstat_theta_mean           =   3.6631902686884E+02
(PID.TID 0000.0001) %MON dynstat_theta_sd             =   3.6655684522372E+01
(PID.TID 0000.0001) %MON dynstat_theta_del2           =   2.5650417570611E-01
(PID.TID 0000.0001) %MON dynstat_salt_max             =   5.8413280403904E+01
(PID.TID 0000.0001) %MON dynstat_salt_min             =  -5.4697505167948E+00
(PID.TID 0000.0001) %MON dynstat_salt_mean            =   1.2318851725368E+01
(PID.TID 0000.0001) %MON dynstat_salt_sd              =   1.0793050478149E+01
(PID.TID 0000.0001) %MON dynstat_salt_del2            =   2.4243298600291E-01
(PID.TID 0000.0001) %MON advcfl_uvel_max              =   8.7030817972148E-02
(PID.TID 0000.0001) %MON advcfl_vvel_max              =   7.6032591333552E-02
(PID.TID 0000.0001) %MON advcfl_wvel_max              =   5.9759788658450E-02
(PID.TID 0000.0001) %MON advcfl_W_hf_max              =   5.9759788658450E-02
(PID.TID 0000.0001) %MON pe_b_mean                    =   1.0416798105892E+00
(PID.TID 0000.0001) %MON ke_max                       =   1.0744339999423E+03
(PID.TID 0000.0001) %MON ke_mean                      =   7.1115487935290E+01
(PID.TID 0000.0001) %MON ke_vol                       =   2.7279762099326E+19
(PID.TID 0000.0001) %MON vort_r_min                   =  -9.1353344306201E-05
(PID.TID 0000.0001) %MON vort_r_max                   =   9.1306912508182E-05
(PID.TID 0000.0001) %MON vort_a_mean                  =  -3.0139520035649E-06
(PID.TID 0000.0001) %MON vort_a_sd                    =   4.9825133025331E-05
(PID.TID 0000.0001) %MON vort_p_mean                  =  -3.0735269613522E-06
(PID.TID 0000.0001) %MON vort_p_sd                    =   5.2789476903990E-05
(PID.TID 0000.0001) %MON surfExpan_theta_mean         =  -2.2935137488430E-03
(PID.TID 0000.0001) %MON surfExpan_salt_mean          =  -1.0180006224885E-03
(PID.TID 0000.0001) %MON surfExpan_Heat_mean          =  -2.3131370729170E-01
(PID.TID 0000.0001) %MON En_Budget_T2PE_mean          =   3.9753552561041E+00
(PID.TID 0000.0001) // =======================================================
(PID.TID 0000.0001) // End MONITOR dynamic field statistics
(PID.TID 0000.0001) // =======================================================
 cg2d: Sum(rhs),rhsMax =  -9.34323907131329E-09  3.13582509925397E+03
(PID.TID 0000.0001)                    cg2d_init_res =    2.33294063795025E+03
(PID.TID 0000.0001)                       cg2d_iters =    16
(PID.TID 0000.0001)                         cg2d_res =    1.20453469939727E-12
(PID.TID 0000.0001) // =======================================================
(PID.TID 0000.0001) // Begin MONITOR dynamic field statistics
(PID.TID 0000.0001) // =======================================================
(PID.TID 0000.0001) %MON time_tsnumber                =                  8645
(PID.TID 0000.0001) %MON time_secondsf                =   5.1870000000000E+06
(PID.TID 0000.0001) %MON dynstat_eta_max              =   9.8879855984494E+02
(PID.TID 0000.0001) %MON dynstat_eta_min              =  -1.4682928078135E+03
(PID.TID 0000.0001) %MON dynstat_eta_mean             =   1.4464906202745E-12
(PID.TID 0000.0001) %MON dynstat_eta_sd               =   4.5659282718519E+02
(PID.TID 0000.0001) %MON dynstat_eta_del2             =   1.3944555975430E+01
(PID.TID 0000.0001) %MON dynstat_uvel_max             =   4.3908638396456E+01
(PID.TID 0000.0001) %MON dynstat_uvel_min             =  -3.2307632734652E+01
(PID.TID 0000.0001) %MON dynstat_uvel_mean            =   4.0525229753493E+00
(PID.TID 0000.0001) %MON dynstat_uvel_sd              =   1.0388958664345E+01
(PID.TID 0000.0001) %MON dynstat_uvel_del2            =   6.6708091817873E-01
(PID.TID 0000.0001) %MON dynstat_vvel_max             =   2.2007153710084E+01
(PID.TID 0000.0001) %MON dynstat_vvel_min             =  -3.9473097358064E+01
(PID.TID 0000.0001) %MON dynstat_vvel_mean            =  -6.7020144166369E-03
(PID.TID 0000.0001) %MON dynstat_vvel_sd              =   4.3133078282869E+00
(PID.TID 0000.0001) %MON dynstat_vvel_del2            =   3.3796863042400E-01
(PID.TID 0000.0001) %MON dynstat_wvel_max             =   7.7747233784466E-01
(PID.TID 0000.0001) %MON dynstat_wvel_min             =  -2.0363726360751E+00
(PID.TID 0000.0001) %MON dynstat_wvel_mean            =   1.9335380231059E-18
(PID.TID 0000.0001) %MON dynstat_wvel_sd              =   9.9581447188956E-02
(PID.TID 0000.0001) %MON dynstat_wvel_del2            =   1.0162849137812E-02
(PID.TID 0000.0001) %MON dynstat_theta_max            =   4.5729627524652E+02
(PID.TID 0000.0001) %MON dynstat_theta_min            =   3.0694349486926E+02
(PID.TID 0000.0001) %MON dynstat_theta_mean           =   3.6631970956639E+02
(PID.TID 0000.0001) %MON dynstat_theta_sd             =   3.6655222223684E+01
(PID.TID 0000.0001) %MON dynstat_theta_del2           =   2.5649592842763E-01
(PID.TID 0000.0001) %MON dynstat_salt_max             =   5.8408835055053E+01
(PID.TID 0000.0001) %MON dynstat_salt_min             =  -5.4695480272783E+00
(PID.TID 0000.0001) %MON dynstat_salt_mean            =   1.2318765399747E+01
(PID.TID 0000.0001) %MON dynstat_salt_sd              =   1.0793273910211E+01
(PID.TID 0000.0001) %MON dynstat_salt_del2            =   2.4243647227977E-01
(PID.TID 0000.0001) %MON advcfl_uvel_max              =   8.6857267462075E-02
(PID.TID 0000.0001) %MON advcfl_vvel_max              =   7.5743108585698E-02
(PID.TID 0000.0001) %MON advcfl_wvel_max              =   5.9377475786340E-02
(PID.TID 0000.0001) %MON advcfl_W_hf_max              =   5.9377475786340E-02
(PID.TID 0000.0001) %MON pe_b_mean                    =   1.0423850491850E+00
(PID.TID 0000.0001) %MON ke_max                       =   1.0717031520686E+03
(PID.TID 0000.0001) %MON ke_mean                      =   7.1122865269411E+01
(PID.TID 0000.0001) %MON ke_vol                       =   2.7279762099326E+19
(PID.TID 0000.0001) %MON vort_r_min                   =  -9.1297187834687E-05
(PID.TID 0000.0001) %MON vort_r_max                   =   9.1235656060735E-05
(PID.TID 0000.0001) %MON vort_a_mean                  =  -3.0139565359661E-06
(PID.TID 0000.0001) %MON vort_a_sd                    =   4.9825628705859E-05
(PID.TID 0000.0001) %MON vort_p_mean                  =  -3.0735315833426E-06
(PID.TID 0000.0001) %MON vort_p_sd                    =   5.2789844439704E-05
(PID.TID 0000.0001) %MON surfExpan_theta_mean         =  -2.2993144010228E-03
(PID.TID 0000.0001) %MON surfExpan_salt_mean          =  -9.3879643552852E-04
(PID.TID 0000.0001) %MON surfExpan_Heat_mean          =  -2.3189873555285E-01
(PID.TID 0000.0001) %MON En_Budget_T2PE_mean          =   3.9761192933172E+00
(PID.TID 0000.0001) // =======================================================
(PID.TID 0000.0001) // End MONITOR dynamic field statistics
(PID.TID 0000.0001) // =======================================================
 cg2d: Sum(rhs),rhsMax =  -9.69316715782043E-09  3.14121101021323E+03
(PID.TID 0000.0001)                    cg2d_init_res =    2.62725717763350E+03
(PID.TID 0000.0001)                       cg2d_iters =    16
(PID.TID 0000.0001)                         cg2d_res =    1.23066671635477E-12
(PID.TID 0000.0001) // =======================================================
(PID.TID 0000.0001) // Begin MONITOR dynamic field statistics
(PID.TID 0000.0001) // =======================================================
(PID.TID 0000.0001) %MON time_tsnumber                =                  8646
(PID.TID 0000.0001) %MON time_secondsf                =   5.1876000000000E+06
(PID.TID 0000.0001) %MON dynstat_eta_max              =   9.8910004242686E+02
(PID.TID 0000.0001) %MON dynstat_eta_min              =  -1.4694042641123E+03
(PID.TID 0000.0001) %MON dynstat_eta_mean             =   1.3309772412162E-12
(PID.TID 0000.0001) %MON dynstat_eta_sd               =   4.5674662537787E+02
(PID.TID 0000.0001) %MON dynstat_eta_del2             =   1.4451207424889E+01
(PID.TID 0000.0001) %MON dynstat_uvel_max             =   4.3815694358407E+01
(PID.TID 0000.0001) %MON dynstat_uvel_min             =  -3.2518795031951E+01
(PID.TID 0000.0001) %MON dynstat_uvel_mean            =   4.0529574092582E+00
(PID.TID 0000.0001) %MON dynstat_uvel_sd              =   1.0389071991537E+01
(PID.TID 0000.0001) %MON dynstat_uvel_del2            =   6.6710852279264E-01
(PID.TID 0000.0001) %MON dynstat_vvel_max             =   2.1984080174434E+01
(PID.TID 0000.0001) %MON dynstat_vvel_min             =  -3.9316628530392E+01
(PID.TID 0000.0001) %MON dynstat_vvel_mean            =  -6.5646227929128E-03
(PID.TID 0000.0001) %MON dynstat_vvel_sd              =   4.3143714148625E+00
(PID.TID 0000.0001) %MON dynstat_vvel_del2            =   3.3814497063684E-01
(PID.TID 0000.0001) %MON dynstat_wvel_max             =   7.7436154441029E-01
(PID.TID 0000.0001) %MON dynstat_wvel_min             =  -2.0321627324556E+00
(PID.TID 0000.0001) %MON dynstat_wvel_mean            =  -2.1124524603621E-18
(PID.TID 0000.0001) %MON dynstat_wvel_sd              =   9.9581112271275E-02
(PID.TID 0000.0001) %MON dynstat_wvel_del2            =   1.0112939448840E-02
(PID.TID 0000.0001) %MON dynstat_theta_max            =   4.5731096546287E+02
(PID.TID 0000.0001) %MON dynstat_theta_min            =   3.0690765531060E+02
(PID.TID 0000.0001) %MON dynstat_theta_mean           =   3.6632039400859E+02
(PID.TID 0000.0001) %MON dynstat_theta_sd             =   3.6654757921585E+01
(PID.TID 0000.0001) %MON dynstat_theta_del2           =   2.5648034163841E-01
(PID.TID 0000.0001) %MON dynstat_salt_max             =   5.8404550460950E+01
(PID.TID 0000.0001) %MON dynstat_salt_min             =  -5.4693434299161E+00
(PID.TID 0000.0001) %MON dynstat_salt_mean            =   1.2318678108002E+01
(PID.TID 0000.0001) %MON dynstat_salt_sd              =   1.0793496735600E+01
(PID.TID 0000.0001) %MON dynstat_salt_del2            =   2.4244322015545E-01
(PID.TID 0000.0001) %MON advcfl_uvel_max              =   8.6673411495081E-02
(PID.TID 0000.0001) %MON advcfl_vvel_max              =   7.5442867758454E-02
(PID.TID 0000.0001) %MON advcfl_wvel_max              =   5.9013741067855E-02
(PID.TID 0000.0001) %MON advcfl_W_hf_max              =   5.9013741067855E-02
(PID.TID 0000.0001) %MON pe_b_mean                    =   1.0430873989705E+00
(PID.TID 0000.0001) %MON ke_max                       =   1.0688067976408E+03
(PID.TID 0000.0001) %MON ke_mean                      =   7.1130212084304E+01
(PID.TID 0000.0001) %MON ke_vol                       =   2.7279762099326E+19
(PID.TID 0000.0001) %MON vort_r_min                   =  -9.1239063946225E-05
(PID.TID 0000.0001) %MON vort_r_max                   =   9.1121675689674E-05
(PID.TID 0000.0001) %MON vort_a_mean                  =  -3.0139610203700E-06
(PID.TID 0000.0001) %MON vort_a_sd                    =   4.9826080513552E-05
(PID.TID 0000.0001) %MON vort_p_mean                  =  -3.0735361563870E-06
(PID.TID 0000.0001) %MON vort_p_sd                    =   5.2790164765897E-05
(PID.TID 0000.0001) %MON surfExpan_theta_mean         =  -2.2879670645813E-03
(PID.TID 0000.0001) %MON surfExpan_salt_mean          =  -8.6986146034452E-04
(PID.TID 0000.0001) %MON surfExpan_Heat_mean          =  -2.3075429311755E-01
(PID.TID 0000.0001) %MON En_Budget_T2PE_mean          =   3.9766679567934E+00
(PID.TID 0000.0001) // =======================================================
(PID.TID 0000.0001) // End MONITOR dynamic field statistics
(PID.TID 0000.0001) // =======================================================
 cg2d: Sum(rhs),rhsMax =  -9.60403667704668E-09  3.14634340932210E+03
(PID.TID 0000.0001)                    cg2d_init_res =    2.86755906008324E+03
(PID.TID 0000.0001)                       cg2d_iters =    16
(PID.TID 0000.0001)                         cg2d_res =    1.23719042730675E-12
(PID.TID 0000.0001) // =======================================================
(PID.TID 0000.0001) // Begin MONITOR dynamic field statistics
(PID.TID 0000.0001) // =======================================================
(PID.TID 0000.0001) %MON time_tsnumber                =                  8647
(PID.TID 0000.0001) %MON time_secondsf                =   5.1882000000000E+06
(PID.TID 0000.0001) %MON dynstat_eta_max              =   9.8946811951456E+02
(PID.TID 0000.0001) %MON dynstat_eta_min              =  -1.4705083438596E+03
(PID.TID 0000.0001) %MON dynstat_eta_mean             =   1.3998098154580E-12
(PID.TID 0000.0001) %MON dynstat_eta_sd               =   4.5690055095996E+02
(PID.TID 0000.0001) %MON dynstat_eta_del2             =   1.4939294869237E+01
(PID.TID 0000.0001) %MON dynstat_uvel_max             =   4.3717617005900E+01
(PID.TID 0000.0001) %MON dynstat_uvel_min             =  -3.2721224950981E+01
(PID.TID 0000.0001) %MON dynstat_uvel_mean            =   4.0533919057691E+00
(PID.TID 0000.0001) %MON dynstat_uvel_sd              =   1.0389179549155E+01
(PID.TID 0000.0001) %MON dynstat_uvel_del2            =   6.6714940955320E-01
(PID.TID 0000.0001) %MON dynstat_vvel_max             =   2.1947566162149E+01
(PID.TID 0000.0001) %MON dynstat_vvel_min             =  -3.9156580280419E+01
(PID.TID 0000.0001) %MON dynstat_vvel_mean            =  -6.4205036176869E-03
(PID.TID 0000.0001) %MON dynstat_vvel_sd              =   4.3154405987022E+00
(PID.TID 0000.0001) %MON dynstat_vvel_del2            =   3.3831015915945E-01
(PID.TID 0000.0001) %MON dynstat_wvel_max             =   7.7090926117266E-01
(PID.TID 0000.0001) %MON dynstat_wvel_min             =  -2.0289870360353E+00
(PID.TID 0000.0001) %MON dynstat_wvel_mean            =   3.3223753008848E-18
(PID.TID 0000.0001) %MON dynstat_wvel_sd              =   9.9593467708699E-02
(PID.TID 0000.0001) %MON dynstat_wvel_del2            =   1.0082539952042E-02
(PID.TID 0000.0001) %MON dynstat_theta_max            =   4.5732572611261E+02
(PID.TID 0000.0001) %MON dynstat_theta_min            =   3.0687419307094E+02
(PID.TID 0000.0001) %MON dynstat_theta_mean           =   3.6632108217398E+02
(PID.TID 0000.0001) %MON dynstat_theta_sd             =   3.6654293124933E+01
(PID.TID 0000.0001) %MON dynstat_theta_del2           =   2.5645814634536E-01
(PID.TID 0000.0001) %MON dynstat_salt_max             =   5.8400398676737E+01
(PID.TID 0000.0001) %MON dynstat_salt_min             =  -5.4691447765891E+00
(PID.TID 0000.0001) %MON dynstat_salt_mean            =   1.2318589402293E+01
(PID.TID 0000.0001) %MON dynstat_salt_sd              =   1.0793718455034E+01
(PID.TID 0000.0001) %MON dynstat_salt_del2            =   2.4245659172353E-01
(PID.TID 0000.0001) %MON advcfl_uvel_max              =   8.6479401132889E-02
(PID.TID 0000.0001) %MON advcfl_vvel_max              =   7.5135758542607E-02
(PID.TID 0000.0001) %MON advcfl_wvel_max              =   5.8657992142790E-02
(PID.TID 0000.0001) %MON advcfl_W_hf_max              =   5.8657992142790E-02
(PID.TID 0000.0001) %MON pe_b_mean                    =   1.0437905673377E+00
(PID.TID 0000.0001) %MON ke_max                       =   1.0657494392858E+03
(PID.TID 0000.0001) %MON ke_mean                      =   7.1137523684727E+01
(PID.TID 0000.0001) %MON ke_vol                       =   2.7279762099326E+19
(PID.TID 0000.0001) %MON vort_r_min                   =  -9.1179437146653E-05
(PID.TID 0000.0001) %MON vort_r_max                   =   9.0966483981549E-05
(PID.TID 0000.0001) %MON vort_a_mean                  =  -3.0139654658472E-06
(PID.TID 0000.0001) %MON vort_a_sd                    =   4.9826493447088E-05
(PID.TID 0000.0001) %MON vort_p_mean                  =  -3.0735406897353E-06
(PID.TID 0000.0001) %MON vort_p_sd                    =   5.2790443637963E-05
(PID.TID 0000.0001) %MON surfExpan_theta_mean         =  -2.2654119484812E-03
(PID.TID 0000.0001) %MON surfExpan_salt_mean          =  -8.2005965670065E-04
(PID.TID 0000.0001) %MON surfExpan_Heat_mean          =  -2.2847948333009E-01
(PID.TID 0000.0001) %MON En_Budget_T2PE_mean          =   3.9769867283622E+00
(PID.TID 0000.0001) // =======================================================
(PID.TID 0000.0001) // End MONITOR dynamic field statistics
(PID.TID 0000.0001) // =======================================================
 cg2d: Sum(rhs),rhsMax =  -9.67975211096928E-09  3.15165550037767E+03
(PID.TID 0000.0001)                    cg2d_init_res =    3.07377396233578E+03
(PID.TID 0000.0001)                       cg2d_iters =    16
(PID.TID 0000.0001)                         cg2d_res =    1.23730600879809E-12
(PID.TID 0000.0001) // =======================================================
(PID.TID 0000.0001) // Begin MONITOR dynamic field statistics
(PID.TID 0000.0001) // =======================================================
(PID.TID 0000.0001) %MON time_tsnumber                =                  8648
(PID.TID 0000.0001) %MON time_secondsf                =   5.1888000000000E+06
(PID.TID 0000.0001) %MON dynstat_eta_max              =   9.8992559007676E+02
(PID.TID 0000.0001) %MON dynstat_eta_min              =  -1.4717462685771E+03
(PID.TID 0000.0001) %MON dynstat_eta_mean             =   1.4180245087603E-12
(PID.TID 0000.0001) %MON dynstat_eta_sd               =   4.5705454658674E+02
(PID.TID 0000.0001) %MON dynstat_eta_del2             =   1.5405104444877E+01
(PID.TID 0000.0001) %MON dynstat_uvel_max             =   4.3614559230107E+01
(PID.TID 0000.0001) %MON dynstat_uvel_min             =  -3.2913577966329E+01
(PID.TID 0000.0001) %MON dynstat_uvel_mean            =   4.0538266256464E+00
(PID.TID 0000.0001) %MON dynstat_uvel_sd              =   1.0389274052651E+01
(PID.TID 0000.0001) %MON dynstat_uvel_del2            =   6.6719156412436E-01
(PID.TID 0000.0001) %MON dynstat_vvel_max             =   2.1897766172517E+01
(PID.TID 0000.0001) %MON dynstat_vvel_min             =  -3.8994262621650E+01
(PID.TID 0000.0001) %MON dynstat_vvel_mean            =  -6.2711494773812E-03
(PID.TID 0000.0001) %MON dynstat_vvel_sd              =   4.3165308277671E+00
(PID.TID 0000.0001) %MON dynstat_vvel_del2            =   3.3848333833258E-01
(PID.TID 0000.0001) %MON dynstat_wvel_max             =   7.6717828526064E-01
(PID.TID 0000.0001) %MON dynstat_wvel_min             =  -2.0263750119691E+00
(PID.TID 0000.0001) %MON dynstat_wvel_mean            =   2.3778754817769E-18
(PID.TID 0000.0001) %MON dynstat_wvel_sd              =   9.9613718570047E-02
(PID.TID 0000.0001) %MON dynstat_wvel_del2            =   1.0062863441221E-02
(PID.TID 0000.0001) %MON dynstat_theta_max            =   4.5734060373914E+02
(PID.TID 0000.0001) %MON dynstat_theta_min            =   3.0684306665409E+02
(PID.TID 0000.0001) %MON dynstat_theta_mean           =   3.6632177801630E+02
(PID.TID 0000.0001) %MON dynstat_theta_sd             =   3.6653830367226E+01
(PID.TID 0000.0001) %MON dynstat_theta_del2           =   2.5642439226589E-01
(PID.TID 0000.0001) %MON dynstat_salt_max             =   5.8396358057457E+01
(PID.TID 0000.0001) %MON dynstat_salt_min             =  -5.4689589076493E+00
(PID.TID 0000.0001) %MON dynstat_salt_mean            =   1.2318498301096E+01
(PID.TID 0000.0001) %MON dynstat_salt_sd              =   1.0793938558634E+01
(PID.TID 0000.0001) %MON dynstat_salt_del2            =   2.4247298157939E-01
(PID.TID 0000.0001) %MON advcfl_uvel_max              =   8.6275538815062E-02
(PID.TID 0000.0001) %MON advcfl_vvel_max              =   7.4824294662741E-02
(PID.TID 0000.0001) %MON advcfl_wvel_max              =   5.8302035460405E-02
(PID.TID 0000.0001) %MON advcfl_W_hf_max              =   5.8302035460405E-02
(PID.TID 0000.0001) %MON pe_b_mean                    =   1.0444942927782E+00
(PID.TID 0000.0001) %MON ke_max                       =   1.0625387160528E+03
(PID.TID 0000.0001) %MON ke_mean                      =   7.1144789144540E+01
(PID.TID 0000.0001) %MON ke_vol                       =   2.7279762099326E+19
(PID.TID 0000.0001) %MON vort_r_min                   =  -9.1118892613185E-05
(PID.TID 0000.0001) %MON vort_r_max                   =   9.0771275283231E-05
(PID.TID 0000.0001) %MON vort_a_mean                  =  -3.0139698764940E-06
(PID.TID 0000.0001) %MON vort_a_sd                    =   4.9826873445065E-05
(PID.TID 0000.0001) %MON vort_p_mean                  =  -3.0735451875647E-06
(PID.TID 0000.0001) %MON vort_p_sd                    =   5.2790687736372E-05
(PID.TID 0000.0001) %MON surfExpan_theta_mean         =  -2.2348220666694E-03
(PID.TID 0000.0001) %MON surfExpan_salt_mean          =  -7.9069329128756E-04
(PID.TID 0000.0001) %MON surfExpan_Heat_mean          =  -2.2539432241878E-01
(PID.TID 0000.0001) %MON En_Budget_T2PE_mean          =   3.9770915002418E+00
(PID.TID 0000.0001) // =======================================================
(PID.TID 0000.0001) // End MONITOR dynamic field statistics
(PID.TID 0000.0001) // =======================================================
 cg2d: Sum(rhs),rhsMax =  -9.82367964752484E-09  3.15722499978671E+03
(PID.TID 0000.0001)                    cg2d_init_res =    3.25614261548972E+03
(PID.TID 0000.0001)                       cg2d_iters =    16
(PID.TID 0000.0001)                         cg2d_res =    1.23860531448567E-12
(PID.TID 0000.0001) // =======================================================
(PID.TID 0000.0001) // Begin MONITOR dynamic field statistics
(PID.TID 0000.0001) // =======================================================
(PID.TID 0000.0001) %MON time_tsnumber                =                  8649
(PID.TID 0000.0001) %MON time_secondsf                =   5.1894000000000E+06
(PID.TID 0000.0001) %MON dynstat_eta_max              =   9.9048107855215E+02
(PID.TID 0000.0001) %MON dynstat_eta_min              =  -1.4731214515162E+03
(PID.TID 0000.0001) %MON dynstat_eta_mean             =   1.4309526823534E-12
(PID.TID 0000.0001) %MON dynstat_eta_sd               =   4.5720832671092E+02
(PID.TID 0000.0001) %MON dynstat_eta_del2             =   1.5853610616040E+01
(PID.TID 0000.0001) %MON dynstat_uvel_max             =   4.3506694640473E+01
(PID.TID 0000.0001) %MON dynstat_uvel_min             =  -3.3094749240275E+01
(PID.TID 0000.0001) %MON dynstat_uvel_mean            =   4.0542615359280E+00
(PID.TID 0000.0001) %MON dynstat_uvel_sd              =   1.0389351789466E+01
(PID.TID 0000.0001) %MON dynstat_uvel_del2            =   6.6724483944676E-01
(PID.TID 0000.0001) %MON dynstat_vvel_max             =   2.1834494494933E+01
(PID.TID 0000.0001) %MON dynstat_vvel_min             =  -3.8830023920153E+01
(PID.TID 0000.0001) %MON dynstat_vvel_mean            =  -6.1178521524330E-03
(PID.TID 0000.0001) %MON dynstat_vvel_sd              =   4.3176485856439E+00
(PID.TID 0000.0001) %MON dynstat_vvel_del2            =   3.3868464851186E-01
(PID.TID 0000.0001) %MON dynstat_wvel_max             =   7.6314995166084E-01
(PID.TID 0000.0001) %MON dynstat_wvel_min             =  -2.0239968905773E+00
(PID.TID 0000.0001) %MON dynstat_wvel_mean            =  -4.5462153922428E-19
(PID.TID 0000.0001) %MON dynstat_wvel_sd              =   9.9638675256210E-02
(PID.TID 0000.0001) %MON dynstat_wvel_del2            =   1.0048427984846E-02
(PID.TID 0000.0001) %MON dynstat_theta_max            =   4.5735560233069E+02
(PID.TID 0000.0001) %MON dynstat_theta_min            =   3.0681427824754E+02
(PID.TID 0000.0001) %MON dynstat_theta_mean           =   3.6632248256317E+02
(PID.TID 0000.0001) %MON dynstat_theta_sd             =   3.6653369188029E+01
(PID.TID 0000.0001) %MON dynstat_theta_del2           =   2.5639177299015E-01
(PID.TID 0000.0001) %MON dynstat_salt_max             =   5.8392404074624E+01
(PID.TID 0000.0001) %MON dynstat_salt_min             =  -5.4687898616361E+00
(PID.TID 0000.0001) %MON dynstat_salt_mean            =   1.2318404550363E+01
(PID.TID 0000.0001) %MON dynstat_salt_sd              =   1.0794156578417E+01
(PID.TID 0000.0001) %MON dynstat_salt_del2            =   2.4248906131189E-01
(PID.TID 0000.0001) %MON advcfl_uvel_max              =   8.6062167964731E-02
(PID.TID 0000.0001) %MON advcfl_vvel_max              =   7.4509144582457E-02
(PID.TID 0000.0001) %MON advcfl_wvel_max              =   5.7940453948132E-02
(PID.TID 0000.0001) %MON advcfl_W_hf_max              =   5.7940453948132E-02
(PID.TID 0000.0001) %MON pe_b_mean                    =   1.0451972700692E+00
(PID.TID 0000.0001) %MON ke_max                       =   1.0591827688944E+03
(PID.TID 0000.0001) %MON ke_mean                      =   7.1151996730934E+01
(PID.TID 0000.0001) %MON ke_vol                       =   2.7279762099326E+19
(PID.TID 0000.0001) %MON vort_r_min                   =  -9.1057904162924E-05
(PID.TID 0000.0001) %MON vort_r_max                   =   9.0537262309145E-05
(PID.TID 0000.0001) %MON vort_a_mean                  =  -3.0139742528995E-06
(PID.TID 0000.0001) %MON vort_a_sd                    =   4.9827225147454E-05
(PID.TID 0000.0001) %MON vort_p_mean                  =  -3.0735496504759E-06
(PID.TID 0000.0001) %MON vort_p_sd                    =   5.2790902464123E-05
(PID.TID 0000.0001) %MON surfExpan_theta_mean         =  -2.1975798007042E-03
(PID.TID 0000.0001) %MON surfExpan_salt_mean          =  -7.7778218427970E-04
(PID.TID 0000.0001) %MON surfExpan_Heat_mean          =  -2.2163823130630E-01
(PID.TID 0000.0001) %MON En_Budget_T2PE_mean          =   3.9770306441659E+00
(PID.TID 0000.0001) // =======================================================
(PID.TID 0000.0001) // End MONITOR dynamic field statistics
(PID.TID 0000.0001) // =======================================================
 cg2d: Sum(rhs),rhsMax =  -9.90235093922820E-09  3.16274866564719E+03
(PID.TID 0000.0001)                    cg2d_init_res =    3.42038491811923E+03
(PID.TID 0000.0001)                       cg2d_iters =    16
(PID.TID 0000.0001)                         cg2d_res =    1.24337586993698E-12
(PID.TID 0000.0001) // =======================================================
(PID.TID 0000.0001) // Begin MONITOR dynamic field statistics
(PID.TID 0000.0001) // =======================================================
(PID.TID 0000.0001) %MON time_tsnumber                =                  8650
(PID.TID 0000.0001) %MON time_secondsf                =   5.1900000000000E+06
(PID.TID 0000.0001) %MON dynstat_eta_max              =   9.9112081288595E+02
(PID.TID 0000.0001) %MON dynstat_eta_min              =  -1.4745060737346E+03
(PID.TID 0000.0001) %MON dynstat_eta_mean             =   1.4531500212743E-12
(PID.TID 0000.0001) %MON dynstat_eta_sd               =   4.5736168565234E+02
(PID.TID 0000.0001) %MON dynstat_eta_del2             =   1.6276328474147E+01
(PID.TID 0000.0001) %MON dynstat_uvel_max             =   4.3394200804410E+01
(PID.TID 0000.0001) %MON dynstat_uvel_min             =  -3.3264306897236E+01
(PID.TID 0000.0001) %MON dynstat_uvel_mean            =   4.0546965007145E+00
(PID.TID 0000.0001) %MON dynstat_uvel_sd              =   1.0389411994247E+01
(PID.TID 0000.0001) %MON dynstat_uvel_del2            =   6.6730517866193E-01
(PID.TID 0000.0001) %MON dynstat_vvel_max             =   2.1757787238427E+01
(PID.TID 0000.0001) %MON dynstat_vvel_min             =  -3.8663567383122E+01
(PID.TID 0000.0001) %MON dynstat_vvel_mean            =  -5.9614997736339E-03
(PID.TID 0000.0001) %MON dynstat_vvel_sd              =   4.3187934307400E+00
(PID.TID 0000.0001) %MON dynstat_vvel_del2            =   3.3890616891001E-01
(PID.TID 0000.0001) %MON dynstat_wvel_max             =   7.5882136878550E-01
(PID.TID 0000.0001) %MON dynstat_wvel_min             =  -2.0216467587491E+00
(PID.TID 0000.0001) %MON dynstat_wvel_mean            =   5.0014455967127E-19
(PID.TID 0000.0001) %MON dynstat_wvel_sd              =   9.9666475669142E-02
(PID.TID 0000.0001) %MON dynstat_wvel_del2            =   1.0036401618778E-02
(PID.TID 0000.0001) %MON dynstat_theta_max            =   4.5737069848242E+02
(PID.TID 0000.0001) %MON dynstat_theta_min            =   3.0678784204650E+02
(PID.TID 0000.0001) %MON dynstat_theta_mean           =   3.6632319462429E+02
(PID.TID 0000.0001) %MON dynstat_theta_sd             =   3.6652908619055E+01
(PID.TID 0000.0001) %MON dynstat_theta_del2           =   2.5636280355136E-01
(PID.TID 0000.0001) %MON dynstat_salt_max             =   5.8388518217250E+01
(PID.TID 0000.0001) %MON dynstat_salt_min             =  -5.4686388524941E+00
(PID.TID 0000.0001) %MON dynstat_salt_mean            =   1.2318308574942E+01
(PID.TID 0000.0001) %MON dynstat_salt_sd              =   1.0794372250925E+01
(PID.TID 0000.0001) %MON dynstat_salt_del2            =   2.4250390753215E-01
(PID.TID 0000.0001) %MON advcfl_uvel_max              =   8.5839639834422E-02
(PID.TID 0000.0001) %MON advcfl_vvel_max              =   7.4189738799709E-02
(PID.TID 0000.0001) %MON advcfl_wvel_max              =   5.7570070507050E-02
(PID.TID 0000.0001) %MON advcfl_W_hf_max              =   5.7570070507050E-02
(PID.TID 0000.0001) %MON pe_b_mean                    =   1.0458985575139E+00
(PID.TID 0000.0001) %MON ke_max                       =   1.0556895106605E+03
(PID.TID 0000.0001) %MON ke_mean                      =   7.1159136199483E+01
(PID.TID 0000.0001) %MON ke_vol                       =   2.7279762099326E+19
(PID.TID 0000.0001) %MON vort_r_min                   =  -9.0996738248885E-05
(PID.TID 0000.0001) %MON vort_r_max                   =   9.0265747048651E-05
(PID.TID 0000.0001) %MON vort_a_mean                  =  -3.0139785938446E-06
(PID.TID 0000.0001) %MON vort_a_sd                    =   4.9827551627813E-05
(PID.TID 0000.0001) %MON vort_p_mean                  =  -3.0735540772258E-06
(PID.TID 0000.0001) %MON vort_p_sd                    =   5.2791091642714E-05
(PID.TID 0000.0001) %MON surfExpan_theta_mean         =  -2.1544317960578E-03
(PID.TID 0000.0001) %MON surfExpan_salt_mean          =  -7.7484888786526E-04
(PID.TID 0000.0001) %MON surfExpan_Heat_mean          =  -2.1728651337046E-01
(PID.TID 0000.0001) %MON En_Budget_T2PE_mean          =   3.9768370011674E+00
(PID.TID 0000.0001) // =======================================================
(PID.TID 0000.0001) // End MONITOR dynamic field statistics
(PID.TID 0000.0001) // =======================================================
(PID.TID 0000.0001) %CHECKPOINT      8650 ckptA
(PID.TID 0000.0001)   Seconds in section "ALL                    [THE_MODEL_MAIN]":
(PID.TID 0000.0001)           User time:  1.38999999
(PID.TID 0000.0001)         System time:  0.0499999989
(PID.TID 0000.0001)     Wall clock time:  1.47144997
(PID.TID 0000.0001)          No. starts: 1
(PID.TID 0000.0001)           No. stops: 1
(PID.TID 0000.0001)   Seconds in section "INITIALISE_FIXED       [THE_MODEL_MAIN]":
(PID.TID 0000.0001)           User time:  0.0700000003
(PID.TID 0000.0001)         System time:  0.00999999978
(PID.TID 0000.0001)     Wall clock time:  0.0892000198
(PID.TID 0000.0001)          No. starts: 1
(PID.TID 0000.0001)           No. stops: 1
(PID.TID 0000.0001)   Seconds in section "THE_MAIN_LOOP          [THE_MODEL_MAIN]":
(PID.TID 0000.0001)           User time:  1.30999999
(PID.TID 0000.0001)         System time:  0.0199999996
(PID.TID 0000.0001)     Wall clock time:  1.35089505
(PID.TID 0000.0001)          No. starts: 1
(PID.TID 0000.0001)           No. stops: 1
(PID.TID 0000.0001)   Seconds in section "INITIALISE_VARIA    [THE_MAIN_LOOP]":
(PID.TID 0000.0001)           User time:  0.0300000012
(PID.TID 0000.0001)         System time:  0.00999999978
(PID.TID 0000.0001)     Wall clock time:  0.0602500439
(PID.TID 0000.0001)          No. starts: 1
(PID.TID 0000.0001)           No. stops: 1
(PID.TID 0000.0001)   Seconds in section "WRITE_STATE         [THE_MAIN_LOOP]":
(PID.TID 0000.0001)           User time:  0.
(PID.TID 0000.0001)         System time:  0.00999999978
(PID.TID 0000.0001)     Wall clock time:  0.0139529705
(PID.TID 0000.0001)          No. starts: 1
(PID.TID 0000.0001)           No. stops: 1
(PID.TID 0000.0001)   Seconds in section "MONITOR             [THE_MAIN_LOOP]":
(PID.TID 0000.0001)           User time:  0.0199999958
(PID.TID 0000.0001)         System time:  0.
(PID.TID 0000.0001)     Wall clock time:  0.0181479454
(PID.TID 0000.0001)          No. starts: 1
(PID.TID 0000.0001)           No. stops: 1
(PID.TID 0000.0001)   Seconds in section "MAIN LOOP           [THE_MAIN_LOOP]":
(PID.TID 0000.0001)           User time:  1.26
(PID.TID 0000.0001)         System time:  0.
(PID.TID 0000.0001)     Wall clock time:  1.25843894
(PID.TID 0000.0001)          No. starts: 1
(PID.TID 0000.0001)           No. stops: 1
(PID.TID 0000.0001)   Seconds in section "FORWARD_STEP        [THE_MAIN_LOOP]":
(PID.TID 0000.0001)           User time:  1.26
(PID.TID 0000.0001)         System time:  0.
(PID.TID 0000.0001)     Wall clock time:  1.25822127
(PID.TID 0000.0001)          No. starts: 10
(PID.TID 0000.0001)           No. stops: 10
(PID.TID 0000.0001)   Seconds in section "UPDATE_ETAH        [FORWARD_STEP]":
(PID.TID 0000.0001)           User time:  0.
(PID.TID 0000.0001)         System time:  0.
(PID.TID 0000.0001)     Wall clock time:  0.000417113304
(PID.TID 0000.0001)          No. starts: 10
(PID.TID 0000.0001)           No. stops: 10
(PID.TID 0000.0001)   Seconds in section "EXTERNAL_FIELDS_LOAD[FORWARD_STEP]":
(PID.TID 0000.0001)           User time:  0.
(PID.TID 0000.0001)         System time:  0.
(PID.TID 0000.0001)     Wall clock time:  0.000200033188
(PID.TID 0000.0001)          No. starts: 10
(PID.TID 0000.0001)           No. stops: 10
(PID.TID 0000.0001)   Seconds in section "THERMODYNAMICS      [FORWARD_STEP]":
(PID.TID 0000.0001)           User time:  0.639999814
(PID.TID 0000.0001)         System time:  0.
(PID.TID 0000.0001)     Wall clock time:  0.652166009
(PID.TID 0000.0001)          No. starts: 10
(PID.TID 0000.0001)           No. stops: 10
(PID.TID 0000.0001)   Seconds in section "AIM_DO_PHYSICS   [THERMODYNAMICS]":
(PID.TID 0000.0001)           User time:  0.53999991
(PID.TID 0000.0001)         System time:  0.
(PID.TID 0000.0001)     Wall clock time:  0.542812943
(PID.TID 0000.0001)          No. starts: 10
(PID.TID 0000.0001)           No. stops: 10
(PID.TID 0000.0001)   Seconds in section "BLOCKING_EXCHANGES  [FORWARD_STEP]":
(PID.TID 0000.0001)           User time:  0.
(PID.TID 0000.0001)         System time:  0.
(PID.TID 0000.0001)     Wall clock time:  0.00436401367
(PID.TID 0000.0001)          No. starts: 20
(PID.TID 0000.0001)           No. stops: 20
(PID.TID 0000.0001)   Seconds in section "SHAP_FILT           [FORWARD_STEP]":
(PID.TID 0000.0001)           User time:  0.0599999577
(PID.TID 0000.0001)         System time:  0.
(PID.TID 0000.0001)     Wall clock time:  0.0449650288
(PID.TID 0000.0001)          No. starts: 10
(PID.TID 0000.0001)           No. stops: 10
(PID.TID 0000.0001)   Seconds in section "DYNAMICS            [FORWARD_STEP]":
(PID.TID 0000.0001)           User time:  0.17000027
(PID.TID 0000.0001)         System time:  0.
(PID.TID 0000.0001)     Wall clock time:  0.167136192
(PID.TID 0000.0001)          No. starts: 10
(PID.TID 0000.0001)           No. stops: 10
(PID.TID 0000.0001)   Seconds in section "SOLVE_FOR_PRESSURE  [FORWARD_STEP]":
(PID.TID 0000.0001)           User time:  0.0499999523
(PID.TID 0000.0001)         System time:  0.
(PID.TID 0000.0001)     Wall clock time:  0.0526161194
(PID.TID 0000.0001)          No. starts: 10
(PID.TID 0000.0001)           No. stops: 10
(PID.TID 0000.0001)   Seconds in section "THE_CORRECTION_STEP [FORWARD_STEP]":
(PID.TID 0000.0001)           User time:  0.120000169
(PID.TID 0000.0001)         System time:  0.
(PID.TID 0000.0001)     Wall clock time:  0.13318181
(PID.TID 0000.0001)          No. starts: 10
(PID.TID 0000.0001)           No. stops: 10
(PID.TID 0000.0001)   Seconds in section "MONITOR             [FORWARD_STEP]":
(PID.TID 0000.0001)           User time:  0.189999864
(PID.TID 0000.0001)         System time:  0.
(PID.TID 0000.0001)     Wall clock time:  0.183444977
(PID.TID 0000.0001)          No. starts: 10
(PID.TID 0000.0001)           No. stops: 10
(PID.TID 0000.0001)   Seconds in section "DO_THE_MODEL_IO     [FORWARD_STEP]":
(PID.TID 0000.0001)           User time:  0.0199999809
(PID.TID 0000.0001)         System time:  0.
(PID.TID 0000.0001)     Wall clock time:  0.0168520212
(PID.TID 0000.0001)          No. starts: 10
(PID.TID 0000.0001)           No. stops: 10
(PID.TID 0000.0001)   Seconds in section "WRITE_CHECKPOINT    [FORWARD_STEP]":
(PID.TID 0000.0001)           User time:  0.
(PID.TID 0000.0001)         System time:  0.
(PID.TID 0000.0001)     Wall clock time:  0.000200271606
(PID.TID 0000.0001)          No. starts: 10
(PID.TID 0000.0001)           No. stops: 10
(PID.TID 0000.0001)   Seconds in section "WRITE_CHECKPOINT       [THE_MODEL_MAIN]":
(PID.TID 0000.0001)           User time:  0.00999999046
(PID.TID 0000.0001)         System time:  0.0199999996
(PID.TID 0000.0001)     Wall clock time:  0.0312570333
(PID.TID 0000.0001)          No. starts: 1
(PID.TID 0000.0001)           No. stops: 1
(PID.TID 0000.0001) // ======================================================
(PID.TID 0000.0001) // Tile <-> Tile communication statistics
(PID.TID 0000.0001) // ======================================================
(PID.TID 0000.0001) // o Tile number: 000001
(PID.TID 0000.0001) //         No. X exchanges =              0
(PID.TID 0000.0001) //            Max. X spins =              0
(PID.TID 0000.0001) //            Min. X spins =     1000000000
(PID.TID 0000.0001) //          Total. X spins =              0
(PID.TID 0000.0001) //            Avg. X spins =       0.00E+00
(PID.TID 0000.0001) //         No. Y exchanges =              0
(PID.TID 0000.0001) //            Max. Y spins =              0
(PID.TID 0000.0001) //            Min. Y spins =     1000000000
(PID.TID 0000.0001) //          Total. Y spins =              0
(PID.TID 0000.0001) //            Avg. Y spins =       0.00E+00
(PID.TID 0000.0001) // o Thread number: 000001
(PID.TID 0000.0001) //            No. barriers =           6120
(PID.TID 0000.0001) //      Max. barrier spins =              1
(PID.TID 0000.0001) //      Min. barrier spins =              1
(PID.TID 0000.0001) //     Total barrier spins =           6120
(PID.TID 0000.0001) //      Avg. barrier spins =       1.00E+00
