(PID.TID 0000.0001) 
(PID.TID 0000.0001) // ======================================================
(PID.TID 0000.0001) //                      MITgcm UV
(PID.TID 0000.0001) //                      =========
(PID.TID 0000.0001) // ======================================================
(PID.TID 0000.0001) // execution environment starting up...
(PID.TID 0000.0001) // Run starting Wed Apr  1 14:19:48 1998
(PID.TID 0000.0001) // on melville.lcs.mit.edu
(PID.TID 0000.0001) // account cnh
(PID.TID 0000.0001) // MITgcm UV Release: $Name:  $
(PID.TID 0000.0001) 
(PID.TID 0000.0001) // =======================================================
(PID.TID 0000.0001) // Execution Environment parameter file "eedata"
(PID.TID 0000.0001) // =======================================================
(PID.TID 0000.0001) ># Example "eedata" file
(PID.TID 0000.0001) ># Lines beginning "#" are comments
(PID.TID 0000.0001) ># nTx - No. threads per process in X
(PID.TID 0000.0001) ># nTy - No. threads per process in Y
(PID.TID 0000.0001) > &EEPARMS
(PID.TID 0000.0001) > &
(PID.TID 0000.0001) ># Note: Some systems use & as the
(PID.TID 0000.0001) ># namelist terminator. Other systems
(PID.TID 0000.0001) ># use a / character (as shown here).
(PID.TID 0000.0001) 
(PID.TID 0000.0001) // =======================================================
(PID.TID 0000.0001) // Computational Grid Specification ( see files "SIZE.h" )
(PID.TID 0000.0001) //                                  ( and "eedata"       )
(PID.TID 0000.0001) // =======================================================
(PID.TID 0000.0001)      nPx =    1 ; /* No. processes in X */
(PID.TID 0000.0001)      nPy =    1 ; /* No. processes in Y */
(PID.TID 0000.0001)      nSx =    1 ; /* No. tiles in X per process */
(PID.TID 0000.0001)      nSy =    1 ; /* No. tiles in Y per process */
(PID.TID 0000.0001)      sNx =  128 ; /* Tile size in X */
(PID.TID 0000.0001)      sNy =   23 ; /* Tile size in Y */
(PID.TID 0000.0001)      OLx =    3 ; /* Tile overlap distance in X */
(PID.TID 0000.0001)      OLy =    3 ; /* Tile overlap distance in Y */
(PID.TID 0000.0001)      nTx =    1 ; /* No. threads in X per process */
(PID.TID 0000.0001)      nTy =    1 ; /* No. threads in Y per process */
(PID.TID 0000.0001)       Nr =    5 ; /* No. levels in the vertical   */
(PID.TID 0000.0001)       nX =  128 ; /* Total domain size in X ( = nPx*nSx*sNx ) */
(PID.TID 0000.0001)       nY =   23 ; /* Total domain size in Y ( = nPy*nSy*sNy ) */
(PID.TID 0000.0001)   nTiles =    1 ; /* Total no. tiles per process ( = nSx*nSy ) */
(PID.TID 0000.0001)   nProcs =    1 ; /* Total no. processes ( = nPx*nPy ) */
(PID.TID 0000.0001) nThreads =    1 ; /* Total no. threads per process ( = nTx*nTy ) */
(PID.TID 0000.0001) usingMPI =    F ; /* Flag used to control whether MPI is in use */
(PID.TID 0000.0001)                   /*  note: To execute a program with MPI calls */
(PID.TID 0000.0001)                   /*  it must be launched appropriately e.g     */
(PID.TID 0000.0001)                   /*  "mpirun -np 64 ......"                    */
(PID.TID 0000.0001) 
(PID.TID 0000.0001) // ======================================================
(PID.TID 0000.0001) // Mapping of tiles to threads
(PID.TID 0000.0001) // ======================================================
(PID.TID 0000.0001) // -o- Thread   1, tiles (   1:   1,   1:   1)
(PID.TID 0000.0001) 
(PID.TID 0000.0001) // ======================================================
(PID.TID 0000.0001) // Tile <-> Tile connectvity table
(PID.TID 0000.0001) // ======================================================
(PID.TID 0000.0001) // Tile number: 000001 (process no. = 000001)
(PID.TID 0000.0001) //        WEST: Tile = 000001, Process = 000001, Comm = put
(PID.TID 0000.0001) //                bi = 000001, bj = 000001
(PID.TID 0000.0001) //        EAST: Tile = 000001, Process = 000001, Comm = put
(PID.TID 0000.0001) //                bi = 000001, bj = 000001
(PID.TID 0000.0001) //       SOUTH: Tile = 000001, Process = 000001, Comm = put
(PID.TID 0000.0001) //                bi = 000001, bj = 000001
(PID.TID 0000.0001) //       NORTH: Tile = 000001, Process = 000001, Comm = put
(PID.TID 0000.0001) //                bi = 000001, bj = 000001
(PID.TID 0000.0001) 
(PID.TID 0000.0001) // =======================================================
(PID.TID 0000.0001) // Model parameter file "data"
(PID.TID 0000.0001) // =======================================================
(PID.TID 0000.0001) ># ====================
(PID.TID 0000.0001) ># | Model parameters |
(PID.TID 0000.0001) ># ====================
(PID.TID 0000.0001) >#
(PID.TID 0000.0001) ># Continuous equation parameters
(PID.TID 0000.0001) > &PARM01
(PID.TID 0000.0001) > tRef=281.089, 289.321, 307.191, 331.377, 432.413,
(PID.TID 0000.0001) > sRef=5*0.,
(PID.TID 0000.0001) > viscAr=1.E3,
(PID.TID 0000.0001) > viscAh=0.E6,
(PID.TID 0000.0001) > viscA4=0.E17,
(PID.TID 0000.0001) > no_slip_sides=.FALSE.,
(PID.TID 0000.0001) > no_slip_bottom=.FALSE.,
(PID.TID 0000.0001) > diffKhT=0.E3,
(PID.TID 0000.0001) > diffKrT=0.,
(PID.TID 0000.0001) > diffK4T=0.E17,
(PID.TID 0000.0001) > diffKrS=0.E2,
(PID.TID 0000.0001) > diffKhS=0.E3,
(PID.TID 0000.0001) > diffK4S=0.E17,
(PID.TID 0000.0001) > buoyancyRelation='ATMOSPHERIC',
(PID.TID 0000.0001) > eosType='IDEALGAS',
(PID.TID 0000.0001) > gravity=9.81,
(PID.TID 0000.0001) > rhonil=1.0,
(PID.TID 0000.0001) > rhoConst=1.0,
(PID.TID 0000.0001) > rigidLid=.FALSE.,
(PID.TID 0000.0001) > implicitFreeSurface=.TRUE.,
(PID.TID 0000.0001) > exactConserv=.TRUE.,
(PID.TID 0000.0001) > staggerTimeStep=.TRUE.,
(PID.TID 0000.0001) > nonHydrostatic=.FALSE.,
(PID.TID 0000.0001) > readBinaryPrec=64,
(PID.TID 0000.0001) > writeBinaryPrec=64,
(PID.TID 0000.0001) > hFacMin=1.0,
(PID.TID 0000.0001) > saltAdvScheme=3,
(PID.TID 0000.0001) > &
(PID.TID 0000.0001) >
(PID.TID 0000.0001) ># Elliptic solver parameters
(PID.TID 0000.0001) > &PARM02
(PID.TID 0000.0001) > cg2dMaxIters=200,
(PID.TID 0000.0001) >#cg2dTargetResidual=1.E-12,
(PID.TID 0000.0001) > cg2dTargetResWunit=1.E-18,
(PID.TID 0000.0001) > &
(PID.TID 0000.0001) >
(PID.TID 0000.0001) ># Time stepping parameters
(PID.TID 0000.0001) > &PARM03
(PID.TID 0000.0001) > niter0=8640,
(PID.TID 0000.0001) > nTimeSteps=10,
(PID.TID 0000.0001) >#endTime=31104000.,
(PID.TID 0000.0001) > deltaT=600.0,
(PID.TID 0000.0001) > abEps=0.1,
(PID.TID 0000.0001) > cAdjFreq=0.,
(PID.TID 0000.0001) > pChkptFreq=2592000.0,
(PID.TID 0000.0001) > chkptFreq=0.0,
(PID.TID 0000.0001) > dumpFreq=2592000.0,
(PID.TID 0000.0001) > taveFreq=2592000.0,
(PID.TID 0000.0001) >#monitorFreq=7200.0,
(PID.TID 0000.0001) > monitorFreq=1.0,
(PID.TID 0000.0001) > &
(PID.TID 0000.0001) >
(PID.TID 0000.0001) ># Gridding parameters
(PID.TID 0000.0001) > &PARM04
(PID.TID 0000.0001) > usingCartesianGrid=.FALSE.,
(PID.TID 0000.0001) > usingSphericalPolarGrid=.TRUE.,
(PID.TID 0000.0001) > delX=128*2.8125,
(PID.TID 0000.0001) > delY=23*2.8125,
(PID.TID 0000.0001) > delR=1.E4, 2.5E4, 3.E4, 2.E4, 1.5E4,
(PID.TID 0000.0001) > Ro_SeaLevel=1.E5,
(PID.TID 0000.0001) > groundAtK1=.TRUE.,
(PID.TID 0000.0001) > phiMin=-32.34375,
(PID.TID 0000.0001) > rSphere=6370.E3,
(PID.TID 0000.0001) > &
(PID.TID 0000.0001) >
(PID.TID 0000.0001) ># Input datasets
(PID.TID 0000.0001) > &PARM05
(PID.TID 0000.0001) > &
(PID.TID 0000.0001) 
(PID.TID 0000.0001) S/R INI_PARMS ; read PARM01 : OK
(PID.TID 0000.0001) S/R INI_PARMS ; read PARM02 : OK
(PID.TID 0000.0001) S/R INI_PARMS ; read PARM03 : OK
(PID.TID 0000.0001) S/R INI_PARMS ; read PARM04 : OK
(PID.TID 0000.0001) S/R INI_PARMS ; read PARM05 : OK
(PID.TID 0000.0001) %MON XC_max                       =   3.5859375000000E+02
(PID.TID 0000.0001) %MON XC_min                       =   1.4062500000000E+00
(PID.TID 0000.0001) %MON XC_mean                      =   1.8000000000000E+02
(PID.TID 0000.0001) %MON XC_sd                        =   1.0391987692599E+02
(PID.TID 0000.0001) %MON XG_max                       =   3.5718750000000E+02
(PID.TID 0000.0001) %MON XG_min                       =   2.8125000000000E+00
(PID.TID 0000.0001) %MON XG_mean                      =   1.8000000000000E+02
(PID.TID 0000.0001) %MON XG_sd                        =   1.0310795313651E+02
(PID.TID 0000.0001) %MON DXC_max                      =   3.1268664380261E+05
(PID.TID 0000.0001) %MON DXC_min                      =   2.6820028035446E+05
(PID.TID 0000.0001) %MON DXC_mean                     =   2.9637191437594E+05
(PID.TID 0000.0001) %MON DXC_sd                       =   1.4453062273565E+04
(PID.TID 0000.0001) %MON DXF_max                      =   3.1268664380261E+05
(PID.TID 0000.0001) %MON DXF_min                      =   2.6820028035446E+05
(PID.TID 0000.0001) %MON DXF_mean                     =   2.9637191437594E+05
(PID.TID 0000.0001) %MON DXF_sd                       =   1.4453062273565E+04
(PID.TID 0000.0001) %MON DXG_max                      =   3.1259246843155E+05
(PID.TID 0000.0001) %MON DXG_min                      =   2.6417442582260E+05
(PID.TID 0000.0001) %MON DXG_mean                     =   2.9628265269637E+05
(PID.TID 0000.0001) %MON DXG_sd                       =   1.4650049182776E+04
(PID.TID 0000.0001) %MON DXV_max                      =   3.1259246843155E+05
(PID.TID 0000.0001) %MON DXV_min                      =   2.6417442582260E+05
(PID.TID 0000.0001) %MON DXV_mean                     =   2.9628265269637E+05
(PID.TID 0000.0001) %MON DXV_sd                       =   1.4650049182776E+04
(PID.TID 0000.0001) %MON YC_max                       =   3.0937500000000E+01
(PID.TID 0000.0001) %MON YC_min                       =  -3.0937500000000E+01
(PID.TID 0000.0001) %MON YC_mean                      =   0.0000000000000E+00
(PID.TID 0000.0001) %MON YC_sd                        =   1.9075303077540E+01
(PID.TID 0000.0001) %MON YG_max                       =   2.9531250000000E+01
(PID.TID 0000.0001) %MON YG_min                       =  -3.2343750000000E+01
(PID.TID 0000.0001) %MON YG_mean                      =  -1.4062500000000E+00
(PID.TID 0000.0001) %MON YG_sd                        =   1.8656014445749E+01
(PID.TID 0000.0001) %MON DYC_max                      =   3.1268664380261E+05
(PID.TID 0000.0001) %MON DYC_min                      =   3.1268664380261E+05
(PID.TID 0000.0001) %MON DYC_mean                     =   3.1268664380262E+05
(PID.TID 0000.0001) %MON DYC_sd                       =   7.2177499532700E-09
(PID.TID 0000.0001) %MON DYF_max                      =   3.1268664380261E+05
(PID.TID 0000.0001) %MON DYF_min                      =   3.1268664380261E+05
(PID.TID 0000.0001) %MON DYF_mean                     =   3.1268664380262E+05
(PID.TID 0000.0001) %MON DYF_sd                       =   7.2177499532700E-09
(PID.TID 0000.0001) %MON DYG_max                      =   3.1268664380261E+05
(PID.TID 0000.0001) %MON DYG_min                      =   3.1268664380261E+05
(PID.TID 0000.0001) %MON DYG_mean                     =   3.1268664380262E+05
(PID.TID 0000.0001) %MON DYG_sd                       =   7.2177499532700E-09
(PID.TID 0000.0001) %MON DYU_max                      =   3.1268664380261E+05
(PID.TID 0000.0001) %MON DYU_min                      =   3.1268664380261E+05
(PID.TID 0000.0001) %MON DYU_mean                     =   3.1268664380262E+05
(PID.TID 0000.0001) %MON DYU_sd                       =   7.2177499532700E-09
(PID.TID 0000.0001) %MON RA_max                       =   9.7763121221868E+10
(PID.TID 0000.0001) %MON RA_min                       =   8.3854226074921E+10
(PID.TID 0000.0001) %MON RA_mean                      =   9.2662235391748E+10
(PID.TID 0000.0001) %MON RA_sd                        =   4.5188258183799E+09
(PID.TID 0000.0001) %MON RAW_max                      =   9.7763121221868E+10
(PID.TID 0000.0001) %MON RAW_min                      =   8.3854226074921E+10
(PID.TID 0000.0001) %MON RAW_mean                     =   9.2662235391748E+10
(PID.TID 0000.0001) %MON RAW_sd                       =   4.5188258183799E+09
(PID.TID 0000.0001) %MON RAS_max                      =   9.7733676797555E+10
(PID.TID 0000.0001) %MON RAS_min                      =   8.2595521514234E+10
(PID.TID 0000.0001) %MON RAS_mean                     =   9.2634327258881E+10
(PID.TID 0000.0001) %MON RAS_sd                       =   4.5804148099980E+09
(PID.TID 0000.0001) %MON RAZ_max                      =   9.7733676797555E+10
(PID.TID 0000.0001) %MON RAZ_min                      =   8.2595521514234E+10
(PID.TID 0000.0001) %MON RAZ_mean                     =   9.2634327258881E+10
(PID.TID 0000.0001) %MON RAZ_sd                       =   4.5804148099980E+09
(PID.TID 0000.0001) // =======================================================
(PID.TID 0000.0001) // Field Model R_low (ini_masks_etc) at iteration          1
(PID.TID 0000.0001) // CMIN =          1.000000000000000E+32
(PID.TID 0000.0001) // CMAX =         -1.000000000000000E+32
(PID.TID 0000.0001) // CINT =          0.000000000000000E+00
(PID.TID 0000.0001) // SYMBOLS (CMIN->CMAX): -abcdefghijklmnopqrstuvwxyz+
(PID.TID 0000.0001) //                  0.0: .
(PID.TID 0000.0001) // RANGE I (Lo:Hi:Step):(  -2: 131:   1)
(PID.TID 0000.0001) // RANGE J (Lo:Hi:Step):(  26:  -2:  -1)
(PID.TID 0000.0001) // RANGE K (Lo:Hi:Step):(   1:   1:   1)
(PID.TID 0000.0001) // =======================================================
(PID.TID 0000.0001) K =   1
(PID.TID 0000.0001) //                I=7       I=17      I=27      I=37      I=47      I=57      I=67      I=77      I=87      I=97      I=107     I=117     I=127
(PID.TID 0000.0001) // |--J--|**0123456|890123456|890123456|890123456|890123456|890123456|890123456|890123456|890123456|890123456|890123456|890123456|890123456|8901
(PID.TID 0000.0001) //     26 ......................................................................................................................................
(PID.TID 0000.0001) //     25 ......................................................................................................................................
(PID.TID 0000.0001) //     24 ......................................................................................................................................
(PID.TID 0000.0001) //     23 ......................................................................................................................................
(PID.TID 0000.0001) //     22 ......................................................................................................................................
(PID.TID 0000.0001) //     21 ......................................................................................................................................
(PID.TID 0000.0001) //     20 ......................................................................................................................................
(PID.TID 0000.0001) //     19 ......................................................................................................................................
(PID.TID 0000.0001) //     18 ......................................................................................................................................
(PID.TID 0000.0001) //     17 ......................................................................................................................................
(PID.TID 0000.0001) //     16 ......................................................................................................................................
(PID.TID 0000.0001) //     15 ......................................................................................................................................
(PID.TID 0000.0001) //     14 ......................................................................................................................................
(PID.TID 0000.0001) //     13 ......................................................................................................................................
(PID.TID 0000.0001) //     12 ......................................................................................................................................
(PID.TID 0000.0001) //     11 ......................................................................................................................................
(PID.TID 0000.0001) //     10 ......................................................................................................................................
(PID.TID 0000.0001) //      9 ......................................................................................................................................
(PID.TID 0000.0001) //      8 ......................................................................................................................................
(PID.TID 0000.0001) //      7 ......................................................................................................................................
(PID.TID 0000.0001) //      6 ......................................................................................................................................
(PID.TID 0000.0001) //      5 ......................................................................................................................................
(PID.TID 0000.0001) //      4 ......................................................................................................................................
(PID.TID 0000.0001) //      3 ......................................................................................................................................
(PID.TID 0000.0001) //      2 ......................................................................................................................................
(PID.TID 0000.0001) //      1 ......................................................................................................................................
(PID.TID 0000.0001) //      0 ......................................................................................................................................
(PID.TID 0000.0001) //     -1 ......................................................................................................................................
(PID.TID 0000.0001) //     -2 ......................................................................................................................................
(PID.TID 0000.0001) // =======================================================
(PID.TID 0000.0001) // END OF FIELD                                          =
(PID.TID 0000.0001) // =======================================================
(PID.TID 0000.0001) 
(PID.TID 0000.0001) // =======================================================
(PID.TID 0000.0001) // Field Model Ro_surf (ini_masks_etc) at iteration          1
(PID.TID 0000.0001) // CMIN =          1.000000000000000E+05
(PID.TID 0000.0001) // CMAX =          1.000000000000000E+05
(PID.TID 0000.0001) // CINT =          0.000000000000000E+00
(PID.TID 0000.0001) // SYMBOLS (CMIN->CMAX): -abcdefghijklmnopqrstuvwxyz+
(PID.TID 0000.0001) //                  0.0: .
(PID.TID 0000.0001) // RANGE I (Lo:Hi:Step):(  -2: 131:   1)
(PID.TID 0000.0001) // RANGE J (Lo:Hi:Step):(  26:  -2:  -1)
(PID.TID 0000.0001) // RANGE K (Lo:Hi:Step):(   1:   1:   1)
(PID.TID 0000.0001) // =======================================================
(PID.TID 0000.0001) K =   1
(PID.TID 0000.0001) //                I=7       I=17      I=27      I=37      I=47      I=57      I=67      I=77      I=87      I=97      I=107     I=117     I=127
(PID.TID 0000.0001) // |--J--|**0123456|890123456|890123456|890123456|890123456|890123456|890123456|890123456|890123456|890123456|890123456|890123456|890123456|8901
(PID.TID 0000.0001) //     26 ......................................................................................................................................
(PID.TID 0000.0001) //     25 ......................................................................................................................................
(PID.TID 0000.0001) //     24 ......................................................................................................................................
(PID.TID 0000.0001) //     23 --------------------------------------------------------------------------------------------------------------------------------------
(PID.TID 0000.0001) //     22 --------------------------------------------------------------------------------------------------------------------------------------
(PID.TID 0000.0001) //     21 --------------------------------------------------------------------------------------------------------------------------------------
(PID.TID 0000.0001) //     20 --------------------------------------------------------------------------------------------------------------------------------------
(PID.TID 0000.0001) //     19 --------------------------------------------------------------------------------------------------------------------------------------
(PID.TID 0000.0001) //     18 --------------------------------------------------------------------------------------------------------------------------------------
(PID.TID 0000.0001) //     17 --------------------------------------------------------------------------------------------------------------------------------------
(PID.TID 0000.0001) //     16 --------------------------------------------------------------------------------------------------------------------------------------
(PID.TID 0000.0001) //     15 --------------------------------------------------------------------------------------------------------------------------------------
(PID.TID 0000.0001) //     14 --------------------------------------------------------------------------------------------------------------------------------------
(PID.TID 0000.0001) //     13 --------------------------------------------------------------------------------------------------------------------------------------
(PID.TID 0000.0001) //     12 --------------------------------------------------------------------------------------------------------------------------------------
(PID.TID 0000.0001) //     11 --------------------------------------------------------------------------------------------------------------------------------------
(PID.TID 0000.0001) //     10 --------------------------------------------------------------------------------------------------------------------------------------
(PID.TID 0000.0001) //      9 --------------------------------------------------------------------------------------------------------------------------------------
(PID.TID 0000.0001) //      8 --------------------------------------------------------------------------------------------------------------------------------------
(PID.TID 0000.0001) //      7 --------------------------------------------------------------------------------------------------------------------------------------
(PID.TID 0000.0001) //      6 --------------------------------------------------------------------------------------------------------------------------------------
(PID.TID 0000.0001) //      5 --------------------------------------------------------------------------------------------------------------------------------------
(PID.TID 0000.0001) //      4 --------------------------------------------------------------------------------------------------------------------------------------
(PID.TID 0000.0001) //      3 --------------------------------------------------------------------------------------------------------------------------------------
(PID.TID 0000.0001) //      2 --------------------------------------------------------------------------------------------------------------------------------------
(PID.TID 0000.0001) //      1 --------------------------------------------------------------------------------------------------------------------------------------
(PID.TID 0000.0001) //      0 ......................................................................................................................................
(PID.TID 0000.0001) //     -1 ......................................................................................................................................
(PID.TID 0000.0001) //     -2 ......................................................................................................................................
(PID.TID 0000.0001) // =======================================================
(PID.TID 0000.0001) // END OF FIELD                                          =
(PID.TID 0000.0001) // =======================================================
(PID.TID 0000.0001) 
(PID.TID 0000.0001) // =======================================================
(PID.TID 0000.0001) // Field hFacC at iteration          1
(PID.TID 0000.0001) // CMIN =          1.000000000000000E+00
(PID.TID 0000.0001) // CMAX =          1.000000000000000E+00
(PID.TID 0000.0001) // CINT =          0.000000000000000E+00
(PID.TID 0000.0001) // SYMBOLS (CMIN->CMAX): -abcdefghijklmnopqrstuvwxyz+
(PID.TID 0000.0001) //                  0.0: .
(PID.TID 0000.0001) // RANGE I (Lo:Hi:Step):(  -2: 131:   1)
(PID.TID 0000.0001) // RANGE J (Lo:Hi:Step):(  26:  -2:  -1)
(PID.TID 0000.0001) // RANGE K (Lo:Hi:Step):(   1:   1:   1)
(PID.TID 0000.0001) // =======================================================
(PID.TID 0000.0001) K =   1
(PID.TID 0000.0001) //                I=7       I=17      I=27      I=37      I=47      I=57      I=67      I=77      I=87      I=97      I=107     I=117     I=127
(PID.TID 0000.0001) // |--J--|**0123456|890123456|890123456|890123456|890123456|890123456|890123456|890123456|890123456|890123456|890123456|890123456|890123456|8901
(PID.TID 0000.0001) //     26 ......................................................................................................................................
(PID.TID 0000.0001) //     25 ......................................................................................................................................
(PID.TID 0000.0001) //     24 ......................................................................................................................................
(PID.TID 0000.0001) //     23 --------------------------------------------------------------------------------------------------------------------------------------
(PID.TID 0000.0001) //     22 --------------------------------------------------------------------------------------------------------------------------------------
(PID.TID 0000.0001) //     21 --------------------------------------------------------------------------------------------------------------------------------------
(PID.TID 0000.0001) //     20 --------------------------------------------------------------------------------------------------------------------------------------
(PID.TID 0000.0001) //     19 --------------------------------------------------------------------------------------------------------------------------------------
(PID.TID 0000.0001) //     18 --------------------------------------------------------------------------------------------------------------------------------------
(PID.TID 0000.0001) //     17 --------------------------------------------------------------------------------------------------------------------------------------
(PID.TID 0000.0001) //     16 --------------------------------------------------------------------------------------------------------------------------------------
(PID.TID 0000.0001) //     15 --------------------------------------------------------------------------------------------------------------------------------------
(PID.TID 0000.0001) //     14 --------------------------------------------------------------------------------------------------------------------------------------
(PID.TID 0000.0001) //     13 --------------------------------------------------------------------------------------------------------------------------------------
(PID.TID 0000.0001) //     12 --------------------------------------------------------------------------------------------------------------------------------------
(PID.TID 0000.0001) //     11 --------------------------------------------------------------------------------------------------------------------------------------
(PID.TID 0000.0001) //     10 --------------------------------------------------------------------------------------------------------------------------------------
(PID.TID 0000.0001) //      9 --------------------------------------------------------------------------------------------------------------------------------------
(PID.TID 0000.0001) //      8 --------------------------------------------------------------------------------------------------------------------------------------
(PID.TID 0000.0001) //      7 --------------------------------------------------------------------------------------------------------------------------------------
(PID.TID 0000.0001) //      6 --------------------------------------------------------------------------------------------------------------------------------------
(PID.TID 0000.0001) //      5 --------------------------------------------------------------------------------------------------------------------------------------
(PID.TID 0000.0001) //      4 --------------------------------------------------------------------------------------------------------------------------------------
(PID.TID 0000.0001) //      3 --------------------------------------------------------------------------------------------------------------------------------------
(PID.TID 0000.0001) //      2 --------------------------------------------------------------------------------------------------------------------------------------
(PID.TID 0000.0001) //      1 --------------------------------------------------------------------------------------------------------------------------------------
(PID.TID 0000.0001) //      0 ......................................................................................................................................
(PID.TID 0000.0001) //     -1 ......................................................................................................................................
(PID.TID 0000.0001) //     -2 ......................................................................................................................................
(PID.TID 0000.0001) // =======================================================
(PID.TID 0000.0001) // END OF FIELD                                          =
(PID.TID 0000.0001) // =======================================================
(PID.TID 0000.0001) 
(PID.TID 0000.0001) // =======================================================
(PID.TID 0000.0001) // Field hFacW at iteration          1
(PID.TID 0000.0001) // CMIN =          1.000000000000000E+00
(PID.TID 0000.0001) // CMAX =          1.000000000000000E+00
(PID.TID 0000.0001) // CINT =          0.000000000000000E+00
(PID.TID 0000.0001) // SYMBOLS (CMIN->CMAX): -abcdefghijklmnopqrstuvwxyz+
(PID.TID 0000.0001) //                  0.0: .
(PID.TID 0000.0001) // RANGE I (Lo:Hi:Step):(  -2: 131:   1)
(PID.TID 0000.0001) // RANGE J (Lo:Hi:Step):(  26:  -2:  -1)
(PID.TID 0000.0001) // RANGE K (Lo:Hi:Step):(   1:   1:   1)
(PID.TID 0000.0001) // =======================================================
(PID.TID 0000.0001) K =   1
(PID.TID 0000.0001) //                I=7       I=17      I=27      I=37      I=47      I=57      I=67      I=77      I=87      I=97      I=107     I=117     I=127
(PID.TID 0000.0001) // |--J--|**0123456|890123456|890123456|890123456|890123456|890123456|890123456|890123456|890123456|890123456|890123456|890123456|890123456|8901
(PID.TID 0000.0001) //     26 --------------------------------------------------------------------------------------------------------------------------------------
(PID.TID 0000.0001) //     25 --------------------------------------------------------------------------------------------------------------------------------------
(PID.TID 0000.0001) //     24 --------------------------------------------------------------------------------------------------------------------------------------
(PID.TID 0000.0001) //     23 --------------------------------------------------------------------------------------------------------------------------------------
(PID.TID 0000.0001) //     22 --------------------------------------------------------------------------------------------------------------------------------------
(PID.TID 0000.0001) //     21 --------------------------------------------------------------------------------------------------------------------------------------
(PID.TID 0000.0001) //     20 --------------------------------------------------------------------------------------------------------------------------------------
(PID.TID 0000.0001) //     19 --------------------------------------------------------------------------------------------------------------------------------------
(PID.TID 0000.0001) //     18 --------------------------------------------------------------------------------------------------------------------------------------
(PID.TID 0000.0001) //     17 --------------------------------------------------------------------------------------------------------------------------------------
(PID.TID 0000.0001) //     16 --------------------------------------------------------------------------------------------------------------------------------------
(PID.TID 0000.0001) //     15 --------------------------------------------------------------------------------------------------------------------------------------
(PID.TID 0000.0001) //     14 --------------------------------------------------------------------------------------------------------------------------------------
(PID.TID 0000.0001) //     13 --------------------------------------------------------------------------------------------------------------------------------------
(PID.TID 0000.0001) //     12 --------------------------------------------------------------------------------------------------------------------------------------
(PID.TID 0000.0001) //     11 --------------------------------------------------------------------------------------------------------------------------------------
(PID.TID 0000.0001) //     10 --------------------------------------------------------------------------------------------------------------------------------------
(PID.TID 0000.0001) //      9 --------------------------------------------------------------------------------------------------------------------------------------
(PID.TID 0000.0001) //      8 --------------------------------------------------------------------------------------------------------------------------------------
(PID.TID 0000.0001) //      7 --------------------------------------------------------------------------------------------------------------------------------------
(PID.TID 0000.0001) //      6 --------------------------------------------------------------------------------------------------------------------------------------
(PID.TID 0000.0001) //      5 --------------------------------------------------------------------------------------------------------------------------------------
(PID.TID 0000.0001) //      4 --------------------------------------------------------------------------------------------------------------------------------------
(PID.TID 0000.0001) //      3 --------------------------------------------------------------------------------------------------------------------------------------
(PID.TID 0000.0001) //      2 --------------------------------------------------------------------------------------------------------------------------------------
(PID.TID 0000.0001) //      1 --------------------------------------------------------------------------------------------------------------------------------------
(PID.TID 0000.0001) //      0 --------------------------------------------------------------------------------------------------------------------------------------
(PID.TID 0000.0001) //     -1 --------------------------------------------------------------------------------------------------------------------------------------
(PID.TID 0000.0001) //     -2 --------------------------------------------------------------------------------------------------------------------------------------
(PID.TID 0000.0001) // =======================================================
(PID.TID 0000.0001) // END OF FIELD                                          =
(PID.TID 0000.0001) // =======================================================
(PID.TID 0000.0001) 
(PID.TID 0000.0001) // =======================================================
(PID.TID 0000.0001) // Field hFacS at iteration          1
(PID.TID 0000.0001) // CMIN =          1.000000000000000E+00
(PID.TID 0000.0001) // CMAX =          1.000000000000000E+00
(PID.TID 0000.0001) // CINT =          0.000000000000000E+00
(PID.TID 0000.0001) // SYMBOLS (CMIN->CMAX): -abcdefghijklmnopqrstuvwxyz+
(PID.TID 0000.0001) //                  0.0: .
(PID.TID 0000.0001) // RANGE I (Lo:Hi:Step):(  -2: 131:   1)
(PID.TID 0000.0001) // RANGE J (Lo:Hi:Step):(  26:  -2:  -1)
(PID.TID 0000.0001) // RANGE K (Lo:Hi:Step):(   1:   1:   1)
(PID.TID 0000.0001) // =======================================================
(PID.TID 0000.0001) K =   1
(PID.TID 0000.0001) //                I=7       I=17      I=27      I=37      I=47      I=57      I=67      I=77      I=87      I=97      I=107     I=117     I=127
(PID.TID 0000.0001) // |--J--|**0123456|890123456|890123456|890123456|890123456|890123456|890123456|890123456|890123456|890123456|890123456|890123456|890123456|8901
(PID.TID 0000.0001) //     26 --------------------------------------------------------------------------------------------------------------------------------------
(PID.TID 0000.0001) //     25 --------------------------------------------------------------------------------------------------------------------------------------
(PID.TID 0000.0001) //     24 ......................................................................................................................................
(PID.TID 0000.0001) //     23 --------------------------------------------------------------------------------------------------------------------------------------
(PID.TID 0000.0001) //     22 --------------------------------------------------------------------------------------------------------------------------------------
(PID.TID 0000.0001) //     21 --------------------------------------------------------------------------------------------------------------------------------------
(PID.TID 0000.0001) //     20 --------------------------------------------------------------------------------------------------------------------------------------
(PID.TID 0000.0001) //     19 --------------------------------------------------------------------------------------------------------------------------------------
(PID.TID 0000.0001) //     18 --------------------------------------------------------------------------------------------------------------------------------------
(PID.TID 0000.0001) //     17 --------------------------------------------------------------------------------------------------------------------------------------
(PID.TID 0000.0001) //     16 --------------------------------------------------------------------------------------------------------------------------------------
(PID.TID 0000.0001) //     15 --------------------------------------------------------------------------------------------------------------------------------------
(PID.TID 0000.0001) //     14 --------------------------------------------------------------------------------------------------------------------------------------
(PID.TID 0000.0001) //     13 --------------------------------------------------------------------------------------------------------------------------------------
(PID.TID 0000.0001) //     12 --------------------------------------------------------------------------------------------------------------------------------------
(PID.TID 0000.0001) //     11 --------------------------------------------------------------------------------------------------------------------------------------
(PID.TID 0000.0001) //     10 --------------------------------------------------------------------------------------------------------------------------------------
(PID.TID 0000.0001) //      9 --------------------------------------------------------------------------------------------------------------------------------------
(PID.TID 0000.0001) //      8 --------------------------------------------------------------------------------------------------------------------------------------
(PID.TID 0000.0001) //      7 --------------------------------------------------------------------------------------------------------------------------------------
(PID.TID 0000.0001) //      6 --------------------------------------------------------------------------------------------------------------------------------------
(PID.TID 0000.0001) //      5 --------------------------------------------------------------------------------------------------------------------------------------
(PID.TID 0000.0001) //      4 --------------------------------------------------------------------------------------------------------------------------------------
(PID.TID 0000.0001) //      3 --------------------------------------------------------------------------------------------------------------------------------------
(PID.TID 0000.0001) //      2 --------------------------------------------------------------------------------------------------------------------------------------
(PID.TID 0000.0001) //      1 ......................................................................................................................................
(PID.TID 0000.0001) //      0 --------------------------------------------------------------------------------------------------------------------------------------
(PID.TID 0000.0001) //     -1 --------------------------------------------------------------------------------------------------------------------------------------
(PID.TID 0000.0001) //     -2 --------------------------------------------------------------------------------------------------------------------------------------
(PID.TID 0000.0001) // =======================================================
(PID.TID 0000.0001) // END OF FIELD                                          =
(PID.TID 0000.0001) // =======================================================
(PID.TID 0000.0001) 
(PID.TID 0000.0001) %MON fCori_max                    =   7.4773213164249E-05
(PID.TID 0000.0001) %MON fCori_min                    =  -7.4773213164249E-05
(PID.TID 0000.0001) %MON fCori_mean                   =   6.3527471044073E-22
(PID.TID 0000.0001) %MON fCori_sd                     =   4.6907817211331E-05
(PID.TID 0000.0001) %MON fCoriG_max                   =   7.1689136096147E-05
(PID.TID 0000.0001) %MON fCoriG_min                   =  -7.7812249644691E-05
(PID.TID 0000.0001) %MON fCoriG_mean                  =  -3.3831412888996E-06
(PID.TID 0000.0001) %MON fCoriG_sd                    =   4.5863229796664E-05
(PID.TID 0000.0001)  PACKAGES_BOOT: opening data.pkg
(PID.TID 0000.0001)  OPEN_COPY_DATA_FILE: opening file data.pkg
(PID.TID 0000.0001) // =======================================================
(PID.TID 0000.0001) // Parameter file "data.pkg"
(PID.TID 0000.0001) // =======================================================
(PID.TID 0000.0001) ># Packages
(PID.TID 0000.0001) > &PACKAGES
(PID.TID 0000.0001) > useAIM=.TRUE.,
(PID.TID 0000.0001) > useSHAP_FILT=.TRUE.,
(PID.TID 0000.0001) > &
(PID.TID 0000.0001) 
(PID.TID 0000.0001)  PACKAGES_BOOT: finished reading data.pkg
(PID.TID 0000.0001)  SHAP_FILT_READPARMS: opening data.shap
(PID.TID 0000.0001)  OPEN_COPY_DATA_FILE: opening file data.shap
(PID.TID 0000.0001) // =======================================================
(PID.TID 0000.0001) // Parameter file "data.shap"
(PID.TID 0000.0001) // =======================================================
(PID.TID 0000.0001) ># Shapiro Filter parameters
(PID.TID 0000.0001) > &SHAP_PARM01
(PID.TID 0000.0001) > shap_filt_uvStar=.FALSE.,
(PID.TID 0000.0001) > shap_filt_TrStagg=.TRUE.,
(PID.TID 0000.0001) > Shap_funct=4,
(PID.TID 0000.0001) > nShapT=4,
(PID.TID 0000.0001) > nShapUV=4,
(PID.TID 0000.0001) >#nShapTrPhys=4,
(PID.TID 0000.0001) >#nShapUVPhys=4,
(PID.TID 0000.0001) >#Shap_TrLength=115000.,
(PID.TID 0000.0001) >#Shap_uvLength=110000.,
(PID.TID 0000.0001) >#Shap_Trtau=3600.,
(PID.TID 0000.0001) >#Shap_uvtau=3600.,
(PID.TID 0000.0001) > &
(PID.TID 0000.0001) >
(PID.TID 0000.0001) 
(PID.TID 0000.0001)  SHAP_FILT_READPARMS: finished reading data.shap
 Shap_funct, nShap_Tr,UV _Phys=           4           4           4           0
            0
 Shap_Trtau,Shap_uvtau=   600.0000000000000        600.0000000000000     
(PID.TID 0000.0001) // CG2D normalisation factor =          0.8577286100002721600000000E-05
(PID.TID 0000.0001) 
 ini_cg2d: sumArea,cg2dTolerance =  2.72797620993307E+14  3.89977207109950E-12
(PID.TID 0000.0001) // =======================================================
(PID.TID 0000.0001) // Model configuration
(PID.TID 0000.0001) // =======================================================
(PID.TID 0000.0001) //
(PID.TID 0000.0001) // "Physical" paramters ( PARM01 in namelist )
(PID.TID 0000.0001) //
(PID.TID 0000.0001) tRef =   /* Reference temperature profile ( oC or oK ) */
(PID.TID 0000.0001)                 2.810890000000000E+02,      /* K =  1 */
(PID.TID 0000.0001)                 2.893210000000000E+02,      /* K =  2 */
(PID.TID 0000.0001)                 3.071910000000000E+02,      /* K =  3 */
(PID.TID 0000.0001)                 3.313770000000000E+02,      /* K =  4 */
(PID.TID 0000.0001)                 4.324130000000000E+02       /* K =  5 */
(PID.TID 0000.0001)     ;
(PID.TID 0000.0001) sRef =   /* Reference salinity profile ( ppt ) */
(PID.TID 0000.0001)     5 @  0.000000000000000E+00              /* K =  1:  5 */
(PID.TID 0000.0001)     ;
(PID.TID 0000.0001) viscAh =   /* Lateral eddy viscosity ( m^2/s ) */
(PID.TID 0000.0001)                 0.000000000000000E+00
(PID.TID 0000.0001)     ;
(PID.TID 0000.0001) viscAh =   /* Lateral biharmonic viscosity ( m^4/s ) */
(PID.TID 0000.0001)                 0.000000000000000E+00
(PID.TID 0000.0001)     ;
(PID.TID 0000.0001) no_slip_sides =  /* Viscous BCs: No-slip sides */
(PID.TID 0000.0001)                   F
(PID.TID 0000.0001)     ;
(PID.TID 0000.0001) viscAr =   /* Vertical eddy viscosity ( units of r^2/s ) */
(PID.TID 0000.0001)                 1.000000000000000E+03
(PID.TID 0000.0001)     ;
(PID.TID 0000.0001) diffKhT =   /* Laplacian diffusion of heat laterally ( m^2/s ) */
(PID.TID 0000.0001)                 0.000000000000000E+00
(PID.TID 0000.0001)     ;
(PID.TID 0000.0001) diffK4T =   /* Bihaarmonic diffusion of heat laterally ( m^4/s ) */
(PID.TID 0000.0001)                 0.000000000000000E+00
(PID.TID 0000.0001)     ;
(PID.TID 0000.0001) diffKzT =   /* Laplacian diffusion of heat vertically ( m^2/s ) */
(PID.TID 0000.0001)                 1.234567000000000E+05
(PID.TID 0000.0001)     ;
(PID.TID 0000.0001) diffKrT =   /* Laplacian diffusion of heat vertically ( m^2/s ) */
(PID.TID 0000.0001)                 0.000000000000000E+00
(PID.TID 0000.0001)     ;
(PID.TID 0000.0001) diffKhS =   /* Laplacian diffusion of salt laterally ( m^2/s ) */
(PID.TID 0000.0001)                 0.000000000000000E+00
(PID.TID 0000.0001)     ;
(PID.TID 0000.0001) diffK4S =   /* Bihaarmonic diffusion of salt laterally ( m^4/s ) */
(PID.TID 0000.0001)                 0.000000000000000E+00
(PID.TID 0000.0001)     ;
(PID.TID 0000.0001) diffKzS =   /* Laplacian diffusion of salt vertically ( m^2/s ) */
(PID.TID 0000.0001)                 1.234567000000000E+05
(PID.TID 0000.0001)     ;
(PID.TID 0000.0001) diffKrS =   /* Laplacian diffusion of salt vertically ( m^2/s ) */
(PID.TID 0000.0001)                 0.000000000000000E+00
(PID.TID 0000.0001)     ;
(PID.TID 0000.0001) tAlpha =   /* Linear EOS thermal expansion coefficient ( 1/degree ) */
(PID.TID 0000.0001)                 2.000000000000000E-04
(PID.TID 0000.0001)     ;
(PID.TID 0000.0001) sBeta =   /* Linear EOS haline contraction coefficient ( 1/ppt ) */
(PID.TID 0000.0001)                 7.400000000000001E-04
(PID.TID 0000.0001)     ;
(PID.TID 0000.0001) rhonil =   /* Reference density ( kg/m^3 ) */
(PID.TID 0000.0001)                 1.000000000000000E+00
(PID.TID 0000.0001)     ;
(PID.TID 0000.0001) rhoConst =   /* Reference density ( kg/m^3 ) */
(PID.TID 0000.0001)                 1.000000000000000E+00
(PID.TID 0000.0001)     ;
(PID.TID 0000.0001) gravity =   /* Gravitational acceleration ( m/s^2 ) */
(PID.TID 0000.0001)                 9.810000000000001E+00
(PID.TID 0000.0001)     ;
(PID.TID 0000.0001) gBaro =   /* Barotropic gravity ( m/s^2 ) */
(PID.TID 0000.0001)                 9.810000000000001E+00
(PID.TID 0000.0001)     ;
(PID.TID 0000.0001) f0 =   /* Reference coriolis parameter ( 1/s ) */
(PID.TID 0000.0001)                 1.000000000000000E-04
(PID.TID 0000.0001)     ;
(PID.TID 0000.0001) beta =   /* Beta ( 1/(m.s) ) */
(PID.TID 0000.0001)                 9.999999999999998E-12
(PID.TID 0000.0001)     ;
(PID.TID 0000.0001) freeSurfFac =   /* Implicit free surface factor */
(PID.TID 0000.0001)                 1.000000000000000E+00
(PID.TID 0000.0001)     ;
(PID.TID 0000.0001) implicitFreeSurface =   /* Implicit free surface on/off flag */
(PID.TID 0000.0001)                   T
(PID.TID 0000.0001)     ;
(PID.TID 0000.0001) rigidLid =   /* Rigid lid on/off flag */
(PID.TID 0000.0001)                   F
(PID.TID 0000.0001)     ;
(PID.TID 0000.0001) implicSurfPress =   /* Surface Pressure implicit factor (0-1)*/
(PID.TID 0000.0001)                 1.000000000000000E+00
(PID.TID 0000.0001)     ;
(PID.TID 0000.0001) implicDiv2Dflow =   /* Barot. Flow Div. implicit factor (0-1)*/
(PID.TID 0000.0001)                 1.000000000000000E+00
(PID.TID 0000.0001)     ;
(PID.TID 0000.0001) staggerTimeStep =   /* Stagger time stepping on/off flag */
(PID.TID 0000.0001)                   T
(PID.TID 0000.0001)     ;
(PID.TID 0000.0001) momStepping =  /* Momentum equation on/off flag */
(PID.TID 0000.0001)                   T
(PID.TID 0000.0001)     ;
(PID.TID 0000.0001) momAdvection =  /* Momentum advection on/off flag */
(PID.TID 0000.0001)                   T
(PID.TID 0000.0001)     ;
(PID.TID 0000.0001) momViscosity =  /* Momentum viscosity on/off flag */
(PID.TID 0000.0001)                   T
(PID.TID 0000.0001)     ;
(PID.TID 0000.0001) useCoriolis =  /* Coriolis on/off flag */
(PID.TID 0000.0001)                   T
(PID.TID 0000.0001)     ;
(PID.TID 0000.0001) momForcing =  /* Momentum forcing on/off flag */
(PID.TID 0000.0001)                   T
(PID.TID 0000.0001)     ;
(PID.TID 0000.0001) momPressureForcing =  /* Momentum pressure term on/off flag */
(PID.TID 0000.0001)                   T
(PID.TID 0000.0001)     ;
(PID.TID 0000.0001) tempStepping =  /* Temperature equation on/off flag */
(PID.TID 0000.0001)                   T
(PID.TID 0000.0001)     ;
(PID.TID 0000.0001) nonHydrostatic =  /* Non-Hydrostatic on/off flag */
(PID.TID 0000.0001)                   F
(PID.TID 0000.0001)     ;
(PID.TID 0000.0001) //
(PID.TID 0000.0001) // Elliptic solver(s) paramters ( PARM02 in namelist )
(PID.TID 0000.0001) //
(PID.TID 0000.0001) cg2dMaxIters =   /* Upper limit on 2d con. grad iterations  */
(PID.TID 0000.0001)                     200
(PID.TID 0000.0001)     ;
(PID.TID 0000.0001) cg2dChkResFreq =   /* 2d con. grad convergence test frequency */
(PID.TID 0000.0001)                       1
(PID.TID 0000.0001)     ;
(PID.TID 0000.0001) cg2dTargetResidual =   /* 2d con. grad target residual  */
(PID.TID 0000.0001)                 1.000000000000000E-07
(PID.TID 0000.0001)     ;
(PID.TID 0000.0001) //
(PID.TID 0000.0001) // Time stepping paramters ( PARM03 in namelist )
(PID.TID 0000.0001) //
(PID.TID 0000.0001) nIter0 =   /* Base timestep number  */
(PID.TID 0000.0001)                    8640
(PID.TID 0000.0001)     ;
(PID.TID 0000.0001) nTimeSteps =   /* Number of timesteps */
(PID.TID 0000.0001)                      10
(PID.TID 0000.0001)     ;
(PID.TID 0000.0001) deltatTmom =   /* Momentum equation timestep ( s ) */
(PID.TID 0000.0001)                 6.000000000000000E+02
(PID.TID 0000.0001)     ;
(PID.TID 0000.0001) deltatTtracer =   /* Tracer equation timestep ( s ) */
(PID.TID 0000.0001)                 6.000000000000000E+02
(PID.TID 0000.0001)     ;
(PID.TID 0000.0001) deltatTClock  =   /* Model clock timestep ( s ) */
(PID.TID 0000.0001)                 6.000000000000000E+02
(PID.TID 0000.0001)     ;
(PID.TID 0000.0001) cAdjFreq =   /* Convective adjustment interval ( s ) */
(PID.TID 0000.0001)                 0.000000000000000E+00
(PID.TID 0000.0001)     ;
(PID.TID 0000.0001) abeps =   /* Adams-Bashforth stabilizing weight */
(PID.TID 0000.0001)                 1.000000000000000E-01
(PID.TID 0000.0001)     ;
(PID.TID 0000.0001) tauCD =   /* CD coupling time-scale ( s ) */
(PID.TID 0000.0001)                 6.000000000000000E+02
(PID.TID 0000.0001)     ;
(PID.TID 0000.0001) rCD =   /* Normalised CD coupling parameter */
(PID.TID 0000.0001)                 0.000000000000000E+00
(PID.TID 0000.0001)     ;
(PID.TID 0000.0001) startTime =   /* Run start time ( s ). */
(PID.TID 0000.0001)                 5.184000000000000E+06
(PID.TID 0000.0001)     ;
(PID.TID 0000.0001) endTime =   /* Integration ending time ( s ). */
(PID.TID 0000.0001)                 5.190000000000000E+06
(PID.TID 0000.0001)     ;
(PID.TID 0000.0001) pChkPtFreq =   /* Permanent restart/checkpoint file interval ( s ). */
(PID.TID 0000.0001)                 2.592000000000000E+06
(PID.TID 0000.0001)     ;
(PID.TID 0000.0001) chkPtFreq =   /* Rolling restart/checkpoint file interval ( s ). */
(PID.TID 0000.0001)                 0.000000000000000E+00
(PID.TID 0000.0001)     ;
(PID.TID 0000.0001) dumpFreq =   /* Model state write out interval ( s ). */
(PID.TID 0000.0001)                 2.592000000000000E+06
(PID.TID 0000.0001)     ;
(PID.TID 0000.0001) //
(PID.TID 0000.0001) // Gridding paramters ( PARM04 in namelist )
(PID.TID 0000.0001) //
(PID.TID 0000.0001) usingCartesianGrid =   /* Cartesian coordinates flag ( True / False ) */
(PID.TID 0000.0001)                   F
(PID.TID 0000.0001)     ;
(PID.TID 0000.0001) usingSphericalPolarGrid =   /* Spherical coordinates flag ( True / False ) */
(PID.TID 0000.0001)                   T
(PID.TID 0000.0001)     ;
(PID.TID 0000.0001) groundAtK1 =   /* Lower Boundary (ground) at the surface(k=1) ( T / F ) */
(PID.TID 0000.0001)                   T
(PID.TID 0000.0001)     ;
(PID.TID 0000.0001) Ro_SeaLevel =   /* r(1) ( units of r ) */
(PID.TID 0000.0001)                 1.000000000000000E+05
(PID.TID 0000.0001)     ;
(PID.TID 0000.0001) rkFac =   /* minus Vertical index orientation  */
(PID.TID 0000.0001)                 1.000000000000000E+00
(PID.TID 0000.0001)     ;
(PID.TID 0000.0001) horiVertRatio =   /* Ratio on units : Horiz - Vertical */
(PID.TID 0000.0001)                 9.810000000000001E+00
(PID.TID 0000.0001)     ;
(PID.TID 0000.0001) delZ =   /* W spacing ( m ) */
(PID.TID 0000.0001)     5 @  1.234567000000000E+05              /* K =  1:  5 */
(PID.TID 0000.0001)     ;
(PID.TID 0000.0001) delP =   /* W spacing ( Pa ) */
(PID.TID 0000.0001)     5 @  1.234567000000000E+05              /* K =  1:  5 */
(PID.TID 0000.0001)     ;
(PID.TID 0000.0001) delR =   /* W spacing ( units of r ) */
(PID.TID 0000.0001)                 1.000000000000000E+04,      /* K =  1 */
(PID.TID 0000.0001)                 2.500000000000000E+04,      /* K =  2 */
(PID.TID 0000.0001)                 3.000000000000000E+04,      /* K =  3 */
(PID.TID 0000.0001)                 2.000000000000000E+04,      /* K =  4 */
(PID.TID 0000.0001)                 1.500000000000000E+04       /* K =  5 */
(PID.TID 0000.0001)     ;
(PID.TID 0000.0001) delX =   /* U spacing ( m - cartesian, degrees - spherical ) */
(PID.TID 0000.0001)   128 @  2.812500000000000E+00              /* I =  1:128 */
(PID.TID 0000.0001)     ;
(PID.TID 0000.0001) delY =   /* V spacing ( m - cartesian, degrees - spherical ) */
(PID.TID 0000.0001)    23 @  2.812500000000000E+00              /* J =  1: 23 */
(PID.TID 0000.0001)     ;
(PID.TID 0000.0001) phiMin =    /* South edge (ignored - cartesian, degrees - spherical ) */
(PID.TID 0000.0001)                -3.234375000000000E+01
(PID.TID 0000.0001)     ;
(PID.TID 0000.0001) thetaMin =    /* West edge ( ignored - cartesian, degrees - spherical ) */
(PID.TID 0000.0001)                 0.000000000000000E+00
(PID.TID 0000.0001)     ;
(PID.TID 0000.0001) rSphere =    /* Radius ( ignored - cartesian, m - spherical ) */
(PID.TID 0000.0001)                 6.370000000000000E+06
(PID.TID 0000.0001)     ;
(PID.TID 0000.0001) xcoord =   /* P-point X coord ( m - cartesian, degrees - spherical ) */
(PID.TID 0000.0001)                 1.406250000000000E+00,      /* I =  1 */
(PID.TID 0000.0001)                 4.218750000000000E+00,      /* I =  2 */
(PID.TID 0000.0001)                 7.031250000000000E+00,      /* I =  3 */
(PID.TID 0000.0001)                 9.843750000000000E+00,      /* I =  4 */
(PID.TID 0000.0001)                 1.265625000000000E+01,      /* I =  5 */
(PID.TID 0000.0001)                 1.546875000000000E+01,      /* I =  6 */
(PID.TID 0000.0001)                 1.828125000000000E+01,      /* I =  7 */
(PID.TID 0000.0001)                 2.109375000000000E+01,      /* I =  8 */
(PID.TID 0000.0001)                 2.390625000000000E+01,      /* I =  9 */
(PID.TID 0000.0001)                 2.671875000000000E+01,      /* I = 10 */
(PID.TID 0000.0001)                 2.953125000000000E+01,      /* I = 11 */
(PID.TID 0000.0001)                 3.234375000000000E+01,      /* I = 12 */
(PID.TID 0000.0001)                 3.515625000000000E+01,      /* I = 13 */
(PID.TID 0000.0001)                 3.796875000000000E+01,      /* I = 14 */
(PID.TID 0000.0001)                 4.078125000000000E+01,      /* I = 15 */
(PID.TID 0000.0001)                 4.359375000000000E+01,      /* I = 16 */
(PID.TID 0000.0001)                 4.640625000000000E+01,      /* I = 17 */
(PID.TID 0000.0001)                 4.921875000000000E+01,      /* I = 18 */
(PID.TID 0000.0001)                 5.203125000000000E+01,      /* I = 19 */
(PID.TID 0000.0001)                 5.484375000000000E+01,      /* I = 20 */
(PID.TID 0000.0001)                 5.765625000000000E+01,      /* I = 21 */
(PID.TID 0000.0001)                 6.046875000000000E+01,      /* I = 22 */
(PID.TID 0000.0001)                 6.328125000000000E+01,      /* I = 23 */
(PID.TID 0000.0001)                 6.609375000000000E+01,      /* I = 24 */
(PID.TID 0000.0001)                 6.890625000000000E+01,      /* I = 25 */
(PID.TID 0000.0001)                 7.171875000000000E+01,      /* I = 26 */
(PID.TID 0000.0001)                 7.453125000000000E+01,      /* I = 27 */
(PID.TID 0000.0001)                 7.734375000000000E+01,      /* I = 28 */
(PID.TID 0000.0001)                 8.015625000000000E+01,      /* I = 29 */
(PID.TID 0000.0001)                 8.296875000000000E+01,      /* I = 30 */
(PID.TID 0000.0001)                 8.578125000000000E+01,      /* I = 31 */
(PID.TID 0000.0001)                 8.859375000000000E+01,      /* I = 32 */
(PID.TID 0000.0001)                 9.140625000000000E+01,      /* I = 33 */
(PID.TID 0000.0001)                 9.421875000000000E+01,      /* I = 34 */
(PID.TID 0000.0001)                 9.703125000000000E+01,      /* I = 35 */
(PID.TID 0000.0001)                 9.984375000000000E+01,      /* I = 36 */
(PID.TID 0000.0001)                 1.026562500000000E+02,      /* I = 37 */
(PID.TID 0000.0001)                 1.054687500000000E+02,      /* I = 38 */
(PID.TID 0000.0001)                 1.082812500000000E+02,      /* I = 39 */
(PID.TID 0000.0001)                 1.110937500000000E+02,      /* I = 40 */
(PID.TID 0000.0001)                 1.139062500000000E+02,      /* I = 41 */
(PID.TID 0000.0001)                 1.167187500000000E+02,      /* I = 42 */
(PID.TID 0000.0001)                 1.195312500000000E+02,      /* I = 43 */
(PID.TID 0000.0001)                 1.223437500000000E+02,      /* I = 44 */
(PID.TID 0000.0001)                 1.251562500000000E+02,      /* I = 45 */
(PID.TID 0000.0001)                 1.279687500000000E+02,      /* I = 46 */
(PID.TID 0000.0001)                 1.307812500000000E+02,      /* I = 47 */
(PID.TID 0000.0001)                 1.335937500000000E+02,      /* I = 48 */
(PID.TID 0000.0001)                 1.364062500000000E+02,      /* I = 49 */
(PID.TID 0000.0001)                 1.392187500000000E+02,      /* I = 50 */
(PID.TID 0000.0001)                 1.420312500000000E+02,      /* I = 51 */
(PID.TID 0000.0001)                 1.448437500000000E+02,      /* I = 52 */
(PID.TID 0000.0001)                 1.476562500000000E+02,      /* I = 53 */
(PID.TID 0000.0001)                 1.504687500000000E+02,      /* I = 54 */
(PID.TID 0000.0001)                 1.532812500000000E+02,      /* I = 55 */
(PID.TID 0000.0001)                 1.560937500000000E+02,      /* I = 56 */
(PID.TID 0000.0001)                 1.589062500000000E+02,      /* I = 57 */
(PID.TID 0000.0001)                 1.617187500000000E+02,      /* I = 58 */
(PID.TID 0000.0001)                 1.645312500000000E+02,      /* I = 59 */
(PID.TID 0000.0001)                 1.673437500000000E+02,      /* I = 60 */
(PID.TID 0000.0001)                 1.701562500000000E+02,      /* I = 61 */
(PID.TID 0000.0001)                 1.729687500000000E+02,      /* I = 62 */
(PID.TID 0000.0001)                 1.757812500000000E+02,      /* I = 63 */
(PID.TID 0000.0001)                 1.785937500000000E+02,      /* I = 64 */
(PID.TID 0000.0001)                 1.814062500000000E+02,      /* I = 65 */
(PID.TID 0000.0001)                 1.842187500000000E+02,      /* I = 66 */
(PID.TID 0000.0001)                 1.870312500000000E+02,      /* I = 67 */
(PID.TID 0000.0001)                 1.898437500000000E+02,      /* I = 68 */
(PID.TID 0000.0001)                 1.926562500000000E+02,      /* I = 69 */
(PID.TID 0000.0001)                 1.954687500000000E+02,      /* I = 70 */
(PID.TID 0000.0001)                 1.982812500000000E+02,      /* I = 71 */
(PID.TID 0000.0001)                 2.010937500000000E+02,      /* I = 72 */
(PID.TID 0000.0001)                 2.039062500000000E+02,      /* I = 73 */
(PID.TID 0000.0001)                 2.067187500000000E+02,      /* I = 74 */
(PID.TID 0000.0001)                 2.095312500000000E+02,      /* I = 75 */
(PID.TID 0000.0001)                 2.123437500000000E+02,      /* I = 76 */
(PID.TID 0000.0001)                 2.151562500000000E+02,      /* I = 77 */
(PID.TID 0000.0001)                 2.179687500000000E+02,      /* I = 78 */
(PID.TID 0000.0001)                 2.207812500000000E+02,      /* I = 79 */
(PID.TID 0000.0001)                 2.235937500000000E+02,      /* I = 80 */
(PID.TID 0000.0001)                 2.264062500000000E+02,      /* I = 81 */
(PID.TID 0000.0001)                 2.292187500000000E+02,      /* I = 82 */
(PID.TID 0000.0001)                 2.320312500000000E+02,      /* I = 83 */
(PID.TID 0000.0001)                 2.348437500000000E+02,      /* I = 84 */
(PID.TID 0000.0001)                 2.376562500000000E+02,      /* I = 85 */
(PID.TID 0000.0001)                 2.404687500000000E+02,      /* I = 86 */
(PID.TID 0000.0001)                 2.432812500000000E+02,      /* I = 87 */
(PID.TID 0000.0001)                 2.460937500000000E+02,      /* I = 88 */
(PID.TID 0000.0001)                 2.489062500000000E+02,      /* I = 89 */
(PID.TID 0000.0001)                 2.517187500000000E+02,      /* I = 90 */
(PID.TID 0000.0001)                 2.545312500000000E+02,      /* I = 91 */
(PID.TID 0000.0001)                 2.573437500000000E+02,      /* I = 92 */
(PID.TID 0000.0001)                 2.601562500000000E+02,      /* I = 93 */
(PID.TID 0000.0001)                 2.629687500000000E+02,      /* I = 94 */
(PID.TID 0000.0001)                 2.657812500000000E+02,      /* I = 95 */
(PID.TID 0000.0001)                 2.685937500000000E+02,      /* I = 96 */
(PID.TID 0000.0001)                 2.714062500000000E+02,      /* I = 97 */
(PID.TID 0000.0001)                 2.742187500000000E+02,      /* I = 98 */
(PID.TID 0000.0001)                 2.770312500000000E+02,      /* I = 99 */
(PID.TID 0000.0001)                 2.798437500000000E+02,      /* I =100 */
(PID.TID 0000.0001)                 2.826562500000000E+02,      /* I =101 */
(PID.TID 0000.0001)                 2.854687500000000E+02,      /* I =102 */
(PID.TID 0000.0001)                 2.882812500000000E+02,      /* I =103 */
(PID.TID 0000.0001)                 2.910937500000000E+02,      /* I =104 */
(PID.TID 0000.0001)                 2.939062500000000E+02,      /* I =105 */
(PID.TID 0000.0001)                 2.967187500000000E+02,      /* I =106 */
(PID.TID 0000.0001)                 2.995312500000000E+02,      /* I =107 */
(PID.TID 0000.0001)                 3.023437500000000E+02,      /* I =108 */
(PID.TID 0000.0001)                 3.051562500000000E+02,      /* I =109 */
(PID.TID 0000.0001)                 3.079687500000000E+02,      /* I =110 */
(PID.TID 0000.0001)                 3.107812500000000E+02,      /* I =111 */
(PID.TID 0000.0001)                 3.135937500000000E+02,      /* I =112 */
(PID.TID 0000.0001)                 3.164062500000000E+02,      /* I =113 */
(PID.TID 0000.0001)                 3.192187500000000E+02,      /* I =114 */
(PID.TID 0000.0001)                 3.220312500000000E+02,      /* I =115 */
(PID.TID 0000.0001)                 3.248437500000000E+02,      /* I =116 */
(PID.TID 0000.0001)                 3.276562500000000E+02,      /* I =117 */
(PID.TID 0000.0001)                 3.304687500000000E+02,      /* I =118 */
(PID.TID 0000.0001)                 3.332812500000000E+02,      /* I =119 */
(PID.TID 0000.0001)                 3.360937500000000E+02,      /* I =120 */
(PID.TID 0000.0001)                 3.389062500000000E+02,      /* I =121 */
(PID.TID 0000.0001)                 3.417187500000000E+02,      /* I =122 */
(PID.TID 0000.0001)                 3.445312500000000E+02,      /* I =123 */
(PID.TID 0000.0001)                 3.473437500000000E+02,      /* I =124 */
(PID.TID 0000.0001)                 3.501562500000000E+02,      /* I =125 */
(PID.TID 0000.0001)                 3.529687500000000E+02,      /* I =126 */
(PID.TID 0000.0001)                 3.557812500000000E+02,      /* I =127 */
(PID.TID 0000.0001)                 3.585937500000000E+02       /* I =128 */
(PID.TID 0000.0001)     ;
(PID.TID 0000.0001) ycoord =   /* P-point Y coord ( m - cartesian, degrees - spherical ) */
(PID.TID 0000.0001)                -3.093750000000000E+01,      /* J =  1 */
(PID.TID 0000.0001)                -2.812500000000000E+01,      /* J =  2 */
(PID.TID 0000.0001)                -2.531250000000000E+01,      /* J =  3 */
(PID.TID 0000.0001)                -2.250000000000000E+01,      /* J =  4 */
(PID.TID 0000.0001)                -1.968750000000000E+01,      /* J =  5 */
(PID.TID 0000.0001)                -1.687500000000000E+01,      /* J =  6 */
(PID.TID 0000.0001)                -1.406250000000000E+01,      /* J =  7 */
(PID.TID 0000.0001)                -1.125000000000000E+01,      /* J =  8 */
(PID.TID 0000.0001)                -8.437500000000000E+00,      /* J =  9 */
(PID.TID 0000.0001)                -5.625000000000000E+00,      /* J = 10 */
(PID.TID 0000.0001)                -2.812500000000000E+00,      /* J = 11 */
(PID.TID 0000.0001)                 0.000000000000000E+00,      /* J = 12 */
(PID.TID 0000.0001)                 2.812500000000000E+00,      /* J = 13 */
(PID.TID 0000.0001)                 5.625000000000000E+00,      /* J = 14 */
(PID.TID 0000.0001)                 8.437500000000000E+00,      /* J = 15 */
(PID.TID 0000.0001)                 1.125000000000000E+01,      /* J = 16 */
(PID.TID 0000.0001)                 1.406250000000000E+01,      /* J = 17 */
(PID.TID 0000.0001)                 1.687500000000000E+01,      /* J = 18 */
(PID.TID 0000.0001)                 1.968750000000000E+01,      /* J = 19 */
(PID.TID 0000.0001)                 2.250000000000000E+01,      /* J = 20 */
(PID.TID 0000.0001)                 2.531250000000000E+01,      /* J = 21 */
(PID.TID 0000.0001)                 2.812500000000000E+01,      /* J = 22 */
(PID.TID 0000.0001)                 3.093750000000000E+01       /* J = 23 */
(PID.TID 0000.0001)     ;
(PID.TID 0000.0001) rcoord =   /* P-point R coordinate (  units of r ) */
(PID.TID 0000.0001)                 9.500000000000000E+04,      /* K =  1 */
(PID.TID 0000.0001)                 7.750000000000000E+04,      /* K =  2 */
(PID.TID 0000.0001)                 5.000000000000000E+04,      /* K =  3 */
(PID.TID 0000.0001)                 2.500000000000000E+04,      /* K =  4 */
(PID.TID 0000.0001)                 7.500000000000000E+03       /* K =  5 */
(PID.TID 0000.0001)     ;
(PID.TID 0000.0001) dxF =  /* dxF(:,1,:,1) ( m - cartesian, degrees - spherical ) */
(PID.TID 0000.0001)   128 @  2.682002803544621E+05              /* I =  1:128 */
(PID.TID 0000.0001)     ;
(PID.TID 0000.0001) dxF =  /* dxF(1,:,1,:) ( m - cartesian, degrees - spherical ) */
(PID.TID 0000.0001)                 2.682002803544621E+05,      /* J =  1 */
(PID.TID 0000.0001)                 2.757650002472408E+05,      /* J =  2 */
(PID.TID 0000.0001)                 2.826653781002625E+05,      /* J =  3 */
(PID.TID 0000.0001)                 2.888847902988778E+05,      /* J =  4 */
(PID.TID 0000.0001)                 2.944082537343438E+05,      /* J =  5 */
(PID.TID 0000.0001)                 2.992224618994463E+05,      /* J =  6 */
(PID.TID 0000.0001)                 3.033158169450409E+05,      /* J =  7 */
(PID.TID 0000.0001)                 3.066784576202870E+05,      /* J =  8 */
(PID.TID 0000.0001)                 3.093022830292655E+05,      /* J =  9 */
(PID.TID 0000.0001)                 3.111809721467461E+05,      /* J = 10 */
(PID.TID 0000.0001)                 3.123099990460912E+05,      /* J = 11 */
(PID.TID 0000.0001)                 3.126866438026091E+05,      /* J = 12 */
(PID.TID 0000.0001)                 3.123099990460912E+05,      /* J = 13 */
(PID.TID 0000.0001)                 3.111809721467461E+05,      /* J = 14 */
(PID.TID 0000.0001)                 3.093022830292655E+05,      /* J = 15 */
(PID.TID 0000.0001)                 3.066784576202870E+05,      /* J = 16 */
(PID.TID 0000.0001)                 3.033158169450409E+05,      /* J = 17 */
(PID.TID 0000.0001)                 2.992224618994463E+05,      /* J = 18 */
(PID.TID 0000.0001)                 2.944082537343438E+05,      /* J = 19 */
(PID.TID 0000.0001)                 2.888847902988778E+05,      /* J = 20 */
(PID.TID 0000.0001)                 2.826653781002625E+05,      /* J = 21 */
(PID.TID 0000.0001)                 2.757650002472408E+05,      /* J = 22 */
(PID.TID 0000.0001)                 2.682002803544621E+05       /* J = 23 */
(PID.TID 0000.0001)     ;
(PID.TID 0000.0001) dyF =  /* dyF(:,1,:,1) ( m - cartesian, degrees - spherical ) */
(PID.TID 0000.0001)   128 @  3.126866438026091E+05              /* I =  1:128 */
(PID.TID 0000.0001)     ;
(PID.TID 0000.0001) dyF =  /* dyF(1,:,1,:) ( m - cartesian, degrees - spherical ) */
(PID.TID 0000.0001)    23 @  3.126866438026091E+05              /* J =  1: 23 */
(PID.TID 0000.0001)     ;
(PID.TID 0000.0001) dxG =  /* dxG(:,1,:,1) ( m - cartesian, degrees - spherical ) */
(PID.TID 0000.0001)   128 @  2.641744258225996E+05              /* I =  1:128 */
(PID.TID 0000.0001)     ;
(PID.TID 0000.0001) dxG =  /* dxG(1,:,1,:) ( m - cartesian, degrees - spherical ) */
(PID.TID 0000.0001)                 2.641744258225996E+05,      /* J =  1 */
(PID.TID 0000.0001)                 2.720645810660936E+05,      /* J =  2 */
(PID.TID 0000.0001)                 2.792993089037566E+05,      /* J =  3 */
(PID.TID 0000.0001)                 2.858611802425402E+05,      /* J =  4 */
(PID.TID 0000.0001)                 2.917343869596373E+05,      /* J =  5 */
(PID.TID 0000.0001)                 2.969047799856344E+05,      /* J =  6 */
(PID.TID 0000.0001)                 3.013599033908587E+05,      /* J =  7 */
(PID.TID 0000.0001)                 3.050890243928044E+05,      /* J =  8 */
(PID.TID 0000.0001)                 3.080831592123453E+05,      /* J =  9 */
(PID.TID 0000.0001)                 3.103350947164461E+05,      /* J = 10 */
(PID.TID 0000.0001)                 3.118394057952310E+05,      /* J = 11 */
(PID.TID 0000.0001)     2 @  3.125924684315491E+05,             /* J = 12: 13 */
(PID.TID 0000.0001)                 3.118394057952310E+05,      /* J = 14 */
(PID.TID 0000.0001)                 3.103350947164461E+05,      /* J = 15 */
(PID.TID 0000.0001)                 3.080831592123453E+05,      /* J = 16 */
(PID.TID 0000.0001)                 3.050890243928044E+05,      /* J = 17 */
(PID.TID 0000.0001)                 3.013599033908587E+05,      /* J = 18 */
(PID.TID 0000.0001)                 2.969047799856344E+05,      /* J = 19 */
(PID.TID 0000.0001)                 2.917343869596373E+05,      /* J = 20 */
(PID.TID 0000.0001)                 2.858611802425402E+05,      /* J = 21 */
(PID.TID 0000.0001)                 2.792993089037566E+05,      /* J = 22 */
(PID.TID 0000.0001)                 2.720645810660936E+05       /* J = 23 */
(PID.TID 0000.0001)     ;
(PID.TID 0000.0001) dyG =  /* dyG(:,1,:,1) ( m - cartesian, degrees - spherical ) */
(PID.TID 0000.0001)   128 @  3.126866438026091E+05              /* I =  1:128 */
(PID.TID 0000.0001)     ;
(PID.TID 0000.0001) dyG =  /* dyG(1,:,1,:) ( m - cartesian, degrees - spherical ) */
(PID.TID 0000.0001)    23 @  3.126866438026091E+05              /* J =  1: 23 */
(PID.TID 0000.0001)     ;
(PID.TID 0000.0001) dxC =  /* dxC(:,1,:,1) ( m - cartesian, degrees - spherical ) */
(PID.TID 0000.0001)   128 @  2.682002803544621E+05              /* I =  1:128 */
(PID.TID 0000.0001)     ;
(PID.TID 0000.0001) dxC =  /* dxC(1,:,1,:) ( m - cartesian, degrees - spherical ) */
(PID.TID 0000.0001)                 2.682002803544621E+05,      /* J =  1 */
(PID.TID 0000.0001)                 2.757650002472408E+05,      /* J =  2 */
(PID.TID 0000.0001)                 2.826653781002625E+05,      /* J =  3 */
(PID.TID 0000.0001)                 2.888847902988778E+05,      /* J =  4 */
(PID.TID 0000.0001)                 2.944082537343438E+05,      /* J =  5 */
(PID.TID 0000.0001)                 2.992224618994463E+05,      /* J =  6 */
(PID.TID 0000.0001)                 3.033158169450409E+05,      /* J =  7 */
(PID.TID 0000.0001)                 3.066784576202870E+05,      /* J =  8 */
(PID.TID 0000.0001)                 3.093022830292655E+05,      /* J =  9 */
(PID.TID 0000.0001)                 3.111809721467461E+05,      /* J = 10 */
(PID.TID 0000.0001)                 3.123099990460912E+05,      /* J = 11 */
(PID.TID 0000.0001)                 3.126866438026091E+05,      /* J = 12 */
(PID.TID 0000.0001)                 3.123099990460912E+05,      /* J = 13 */
(PID.TID 0000.0001)                 3.111809721467461E+05,      /* J = 14 */
(PID.TID 0000.0001)                 3.093022830292655E+05,      /* J = 15 */
(PID.TID 0000.0001)                 3.066784576202870E+05,      /* J = 16 */
(PID.TID 0000.0001)                 3.033158169450409E+05,      /* J = 17 */
(PID.TID 0000.0001)                 2.992224618994463E+05,      /* J = 18 */
(PID.TID 0000.0001)                 2.944082537343438E+05,      /* J = 19 */
(PID.TID 0000.0001)                 2.888847902988778E+05,      /* J = 20 */
(PID.TID 0000.0001)                 2.826653781002625E+05,      /* J = 21 */
(PID.TID 0000.0001)                 2.757650002472408E+05,      /* J = 22 */
(PID.TID 0000.0001)                 2.682002803544621E+05       /* J = 23 */
(PID.TID 0000.0001)     ;
(PID.TID 0000.0001) dyC =  /* dyC(:,1,:,1) ( m - cartesian, degrees - spherical ) */
(PID.TID 0000.0001)   128 @  3.126866438026091E+05              /* I =  1:128 */
(PID.TID 0000.0001)     ;
(PID.TID 0000.0001) dyC =  /* dyC(1,:,1,:) ( m - cartesian, degrees - spherical ) */
(PID.TID 0000.0001)    23 @  3.126866438026091E+05              /* J =  1: 23 */
(PID.TID 0000.0001)     ;
(PID.TID 0000.0001) dxV =  /* dxV(:,1,:,1) ( m - cartesian, degrees - spherical ) */
(PID.TID 0000.0001)   128 @  2.641744258225996E+05              /* I =  1:128 */
(PID.TID 0000.0001)     ;
(PID.TID 0000.0001) dxV =  /* dxV(1,:,1,:) ( m - cartesian, degrees - spherical ) */
(PID.TID 0000.0001)                 2.641744258225996E+05,      /* J =  1 */
(PID.TID 0000.0001)                 2.720645810660936E+05,      /* J =  2 */
(PID.TID 0000.0001)                 2.792993089037566E+05,      /* J =  3 */
(PID.TID 0000.0001)                 2.858611802425402E+05,      /* J =  4 */
(PID.TID 0000.0001)                 2.917343869596373E+05,      /* J =  5 */
(PID.TID 0000.0001)                 2.969047799856344E+05,      /* J =  6 */
(PID.TID 0000.0001)                 3.013599033908587E+05,      /* J =  7 */
(PID.TID 0000.0001)                 3.050890243928044E+05,      /* J =  8 */
(PID.TID 0000.0001)                 3.080831592123453E+05,      /* J =  9 */
(PID.TID 0000.0001)                 3.103350947164461E+05,      /* J = 10 */
(PID.TID 0000.0001)                 3.118394057952310E+05,      /* J = 11 */
(PID.TID 0000.0001)     2 @  3.125924684315491E+05,             /* J = 12: 13 */
(PID.TID 0000.0001)                 3.118394057952310E+05,      /* J = 14 */
(PID.TID 0000.0001)                 3.103350947164461E+05,      /* J = 15 */
(PID.TID 0000.0001)                 3.080831592123453E+05,      /* J = 16 */
(PID.TID 0000.0001)                 3.050890243928044E+05,      /* J = 17 */
(PID.TID 0000.0001)                 3.013599033908587E+05,      /* J = 18 */
(PID.TID 0000.0001)                 2.969047799856344E+05,      /* J = 19 */
(PID.TID 0000.0001)                 2.917343869596373E+05,      /* J = 20 */
(PID.TID 0000.0001)                 2.858611802425402E+05,      /* J = 21 */
(PID.TID 0000.0001)                 2.792993089037566E+05,      /* J = 22 */
(PID.TID 0000.0001)                 2.720645810660936E+05       /* J = 23 */
(PID.TID 0000.0001)     ;
(PID.TID 0000.0001) dyU =  /* dyU(:,1,:,1) ( m - cartesian, degrees - spherical ) */
(PID.TID 0000.0001)   128 @  3.126866438026091E+05              /* I =  1:128 */
(PID.TID 0000.0001)     ;
(PID.TID 0000.0001) dyU =  /* dyU(1,:,1,:) ( m - cartesian, degrees - spherical ) */
(PID.TID 0000.0001)    23 @  3.126866438026091E+05              /* J =  1: 23 */
(PID.TID 0000.0001)     ;
(PID.TID 0000.0001) rA =  /* rA(:,1,:,1) ( m - cartesian, degrees - spherical ) */
(PID.TID 0000.0001)   128 @  8.385422607492098E+10              /* I =  1:128 */
(PID.TID 0000.0001)     ;
(PID.TID 0000.0001) rA =  /* rA(1,:,1,:) ( m - cartesian, degrees - spherical ) */
(PID.TID 0000.0001)                 8.385422607492098E+10,      /* J =  1 */
(PID.TID 0000.0001)                 8.621937547463149E+10,      /* J =  2 */
(PID.TID 0000.0001)                 8.837681484689812E+10,      /* J =  3 */
(PID.TID 0000.0001)                 9.032134673130377E+10,      /* J =  4 */
(PID.TID 0000.0001)                 9.204828658021816E+10,      /* J =  5 */
(PID.TID 0000.0001)                 9.355347404428317E+10,      /* J =  6 */
(PID.TID 0000.0001)                 9.483328299505898E+10,      /* J =  7 */
(PID.TID 0000.0001)                 9.588463026068500E+10,      /* J =  8 */
(PID.TID 0000.0001)                 9.670498305351135E+10,      /* J =  9 */
(PID.TID 0000.0001)                 9.729236507180571E+10,      /* J = 10 */
(PID.TID 0000.0001)                 9.764536126083740E+10,      /* J = 11 */
(PID.TID 0000.0001)                 9.776312122186816E+10,      /* J = 12 */
(PID.TID 0000.0001)                 9.764536126083740E+10,      /* J = 13 */
(PID.TID 0000.0001)                 9.729236507180571E+10,      /* J = 14 */
(PID.TID 0000.0001)                 9.670498305351135E+10,      /* J = 15 */
(PID.TID 0000.0001)                 9.588463026068500E+10,      /* J = 16 */
(PID.TID 0000.0001)                 9.483328299505898E+10,      /* J = 17 */
(PID.TID 0000.0001)                 9.355347404428317E+10,      /* J = 18 */
(PID.TID 0000.0001)                 9.204828658021816E+10,      /* J = 19 */
(PID.TID 0000.0001)                 9.032134673130377E+10,      /* J = 20 */
(PID.TID 0000.0001)                 8.837681484689812E+10,      /* J = 21 */
(PID.TID 0000.0001)                 8.621937547463149E+10,      /* J = 22 */
(PID.TID 0000.0001)                 8.385422607492098E+10       /* J = 23 */
(PID.TID 0000.0001)     ;
(PID.TID 0000.0001) rAw =  /* rAw(:,1,:,1) ( m - cartesian, degrees - spherical ) */
(PID.TID 0000.0001)   128 @  8.385422607492098E+10              /* I =  1:128 */
(PID.TID 0000.0001)     ;
(PID.TID 0000.0001) rAw =  /* rAw(1,:,1,:) ( m - cartesian, degrees - spherical ) */
(PID.TID 0000.0001)                 8.385422607492098E+10,      /* J =  1 */
(PID.TID 0000.0001)                 8.621937547463149E+10,      /* J =  2 */
(PID.TID 0000.0001)                 8.837681484689812E+10,      /* J =  3 */
(PID.TID 0000.0001)                 9.032134673130377E+10,      /* J =  4 */
(PID.TID 0000.0001)                 9.204828658021816E+10,      /* J =  5 */
(PID.TID 0000.0001)                 9.355347404428317E+10,      /* J =  6 */
(PID.TID 0000.0001)                 9.483328299505898E+10,      /* J =  7 */
(PID.TID 0000.0001)                 9.588463026068500E+10,      /* J =  8 */
(PID.TID 0000.0001)                 9.670498305351135E+10,      /* J =  9 */
(PID.TID 0000.0001)                 9.729236507180571E+10,      /* J = 10 */
(PID.TID 0000.0001)                 9.764536126083740E+10,      /* J = 11 */
(PID.TID 0000.0001)                 9.776312122186816E+10,      /* J = 12 */
(PID.TID 0000.0001)                 9.764536126083740E+10,      /* J = 13 */
(PID.TID 0000.0001)                 9.729236507180571E+10,      /* J = 14 */
(PID.TID 0000.0001)                 9.670498305351135E+10,      /* J = 15 */
(PID.TID 0000.0001)                 9.588463026068500E+10,      /* J = 16 */
(PID.TID 0000.0001)                 9.483328299505898E+10,      /* J = 17 */
(PID.TID 0000.0001)                 9.355347404428317E+10,      /* J = 18 */
(PID.TID 0000.0001)                 9.204828658021816E+10,      /* J = 19 */
(PID.TID 0000.0001)                 9.032134673130377E+10,      /* J = 20 */
(PID.TID 0000.0001)                 8.837681484689812E+10,      /* J = 21 */
(PID.TID 0000.0001)                 8.621937547463149E+10,      /* J = 22 */
(PID.TID 0000.0001)                 8.385422607492098E+10       /* J = 23 */
(PID.TID 0000.0001)     ;
(PID.TID 0000.0001) rAs =  /* rAs(:,1,:,1) ( m - cartesian, degrees - spherical ) */
(PID.TID 0000.0001)   128 @  8.259552151423444E+10              /* I =  1:128 */
(PID.TID 0000.0001)     ;
(PID.TID 0000.0001) rAs =  /* rAs(1,:,1,:) ( m - cartesian, degrees - spherical ) */
(PID.TID 0000.0001)                 8.259552151423444E+10,      /* J =  1 */
(PID.TID 0000.0001)                 8.506241998533159E+10,      /* J =  2 */
(PID.TID 0000.0001)                 8.732439563609566E+10,      /* J =  3 */
(PID.TID 0000.0001)                 8.937599916905872E+10,      /* J =  4 */
(PID.TID 0000.0001)                 9.121228809161066E+10,      /* J =  5 */
(PID.TID 0000.0001)                 9.282883862289705E+10,      /* J =  6 */
(PID.TID 0000.0001)                 9.422175635109474E+10,      /* J =  7 */
(PID.TID 0000.0001)                 9.538768561539165E+10,      /* J =  8 */
(PID.TID 0000.0001)                 9.632381759006651E+10,      /* J =  9 */
(PID.TID 0000.0001)                 9.702789705119698E+10,      /* J = 10 */
(PID.TID 0000.0001)                 9.749822780969106E+10,      /* J = 11 */
(PID.TID 0000.0001)     2 @  9.773367679755542E+10,             /* J = 12: 13 */
(PID.TID 0000.0001)                 9.749822780969106E+10,      /* J = 14 */
(PID.TID 0000.0001)                 9.702789705119698E+10,      /* J = 15 */
(PID.TID 0000.0001)                 9.632381759006651E+10,      /* J = 16 */
(PID.TID 0000.0001)                 9.538768561539165E+10,      /* J = 17 */
(PID.TID 0000.0001)                 9.422175635109474E+10,      /* J = 18 */
(PID.TID 0000.0001)                 9.282883862289705E+10,      /* J = 19 */
(PID.TID 0000.0001)                 9.121228809161066E+10,      /* J = 20 */
(PID.TID 0000.0001)                 8.937599916905872E+10,      /* J = 21 */
(PID.TID 0000.0001)                 8.732439563609566E+10,      /* J = 22 */
(PID.TID 0000.0001)                 8.506241998533159E+10       /* J = 23 */
(PID.TID 0000.0001)     ;
(PID.TID 0000.0001) 
(PID.TID 0000.0001)  MDSREADFIELD: opening global file: pickup.0000008640
(PID.TID 0000.0001)  MDSREADFIELD: opening global file: pickup.0000008640
(PID.TID 0000.0001)  MDSREADFIELD: opening global file: pickup.0000008640
(PID.TID 0000.0001)  MDSREADFIELD: opening global file: pickup.0000008640
(PID.TID 0000.0001)  MDSREADFIELD: opening global file: pickup.0000008640
(PID.TID 0000.0001)  MDSREADFIELD: opening global file: pickup.0000008640
(PID.TID 0000.0001)  MDSREADFIELD: opening global file: pickup.0000008640
(PID.TID 0000.0001)  MDSREADFIELD: opening global file: pickup.0000008640
(PID.TID 0000.0001)  MDSREADFIELD: opening global file: pickup.0000008640
(PID.TID 0000.0001)  MDSREADFIELD: opening global file: pickup.0000008640
(PID.TID 0000.0001)  MDSREADFIELD: opening global file: pickup.0000008640
(PID.TID 0000.0001)  MDSREADFIELD: opening global file: pickup.0000008640
(PID.TID 0000.0001)  MDSREADFIELD: opening global file: pickup.0000008640
(PID.TID 0000.0001) // =======================================================
(PID.TID 0000.0001) // Model current state
(PID.TID 0000.0001) // =======================================================
(PID.TID 0000.0001) 
(PID.TID 0000.0001) // =======================================================
(PID.TID 0000.0001) // Begin MONITOR dynamic field statistics
(PID.TID 0000.0001) // =======================================================
(PID.TID 0000.0001) %MON time_tsnumber                =                  8640
(PID.TID 0000.0001) %MON time_secondsf                =   5.1840000000000E+06
(PID.TID 0000.0001) %MON time_secondsi                =               5184000
(PID.TID 0000.0001) %MON dynstat_eta_max              =   9.9081369162055E+02
(PID.TID 0000.0001) %MON dynstat_eta_min              =  -1.4582900287715E+03
(PID.TID 0000.0001) %MON dynstat_eta_mean             =   1.4019492219450E-12
(PID.TID 0000.0001) %MON dynstat_eta_sd               =   4.5582161709330E+02
(PID.TID 0000.0001) %MON dynstat_eta_del2             =   1.0859423741222E+01
(PID.TID 0000.0001) %MON dynstat_uvel_max             =   4.4357708337580E+01
(PID.TID 0000.0001) %MON dynstat_uvel_min             =  -3.1059614843420E+01
(PID.TID 0000.0001) %MON dynstat_uvel_mean            =   4.0503400037876E+00
(PID.TID 0000.0001) %MON dynstat_uvel_sd              =   1.0388463310759E+01
(PID.TID 0000.0001) %MON dynstat_uvel_del2            =   6.6704321251628E-01
(PID.TID 0000.0001) %MON dynstat_vvel_max             =   2.1911876971900E+01
(PID.TID 0000.0001) %MON dynstat_vvel_min             =  -4.0207466640580E+01
(PID.TID 0000.0001) %MON dynstat_vvel_mean            =  -7.3016145430770E-03
(PID.TID 0000.0001) %MON dynstat_vvel_sd              =   4.3075886333739E+00
(PID.TID 0000.0001) %MON dynstat_vvel_del2            =   3.3665568285528E-01
(PID.TID 0000.0001) %MON dynstat_wvel_max             =   0.0000000000000E+00
(PID.TID 0000.0001) %MON dynstat_wvel_min             =   0.0000000000000E+00
(PID.TID 0000.0001) %MON dynstat_wvel_mean            =   0.0000000000000E+00
(PID.TID 0000.0001) %MON dynstat_wvel_sd              =   0.0000000000000E+00
(PID.TID 0000.0001) %MON dynstat_wvel_del2            =   0.0000000000000E+00
(PID.TID 0000.0001) %MON dynstat_theta_max            =   4.5722276153770E+02
(PID.TID 0000.0001) %MON dynstat_theta_min            =   3.0716268125663E+02
(PID.TID 0000.0001) %MON dynstat_theta_mean           =   3.6631630706424E+02
(PID.TID 0000.0001) %MON dynstat_theta_sd             =   3.6657496851854E+01
(PID.TID 0000.0001) %MON dynstat_theta_del2           =   2.5639645286218E-01
(PID.TID 0000.0001) %MON dynstat_salt_max             =   5.8435140722437E+01
(PID.TID 0000.0001) %MON dynstat_salt_min             =  -5.4714594385799E+00
(PID.TID 0000.0001) %MON dynstat_salt_mean            =   1.2319139276195E+01
(PID.TID 0000.0001) %MON dynstat_salt_sd              =   1.0792346534731E+01
(PID.TID 0000.0001) %MON dynstat_salt_del2            =   2.4242881426308E-01
(PID.TID 0000.0001) %MON advcfl_uvel_max              =   8.7745588972601E-02
(PID.TID 0000.0001) %MON advcfl_vvel_max              =   7.7152255980518E-02
(PID.TID 0000.0001) %MON advcfl_wvel_max              =   0.0000000000000E+00
(PID.TID 0000.0001) %MON advcfl_W_hf_max              =   0.0000000000000E+00
(PID.TID 0000.0001) %MON ke_max                       =   1.0837484075284E+03
(PID.TID 0000.0001) %MON ke_mean                      =   7.1255234194367E+01
(PID.TID 0000.0001) %MON ke_volint                    =   1.9389190215037E+21
(PID.TID 0000.0001) %MON ke_volmean                   =   7.1075364016890E+01
(PID.TID 0000.0001) // =======================================================
(PID.TID 0000.0001) // End MONITOR dynamic field statistics
(PID.TID 0000.0001) // =======================================================
 cg2d: Sum(rhs),rhsMax =  -9.23569132282864E-09  3.11008963057472E+03
(PID.TID 0000.0001)                    cg2d_init_res =    3.10105612540936E+02
(PID.TID 0000.0001)                       cg2d_iters =    16
(PID.TID 0000.0001)                         cg2d_res =    6.28984077714238E-13
(PID.TID 0000.0001) // =======================================================
(PID.TID 0000.0001) // Begin MONITOR dynamic field statistics
(PID.TID 0000.0001) // =======================================================
(PID.TID 0000.0001) %MON time_tsnumber                =                  8641
(PID.TID 0000.0001) %MON time_secondsf                =   5.1846000000000E+06
(PID.TID 0000.0001) %MON time_secondsi                =               5184600
(PID.TID 0000.0001) %MON dynstat_eta_max              =   9.8936425337139E+02
(PID.TID 0000.0001) %MON dynstat_eta_min              =  -1.4610185402274E+03
(PID.TID 0000.0001) %MON dynstat_eta_mean             =   1.4384447977266E-12
(PID.TID 0000.0001) %MON dynstat_eta_sd               =   4.5595672428416E+02
(PID.TID 0000.0001) %MON dynstat_eta_del2             =   1.1428370996144E+01
(PID.TID 0000.0001) %MON dynstat_uvel_max             =   4.4247336916117E+01
(PID.TID 0000.0001) %MON dynstat_uvel_min             =  -3.1343905140386E+01
(PID.TID 0000.0001) %MON dynstat_uvel_mean            =   4.0507764534313E+00
(PID.TID 0000.0001) %MON dynstat_uvel_sd              =   1.0388578327334E+01
(PID.TID 0000.0001) %MON dynstat_uvel_del2            =   6.6705031816018E-01
(PID.TID 0000.0001) %MON dynstat_vvel_max             =   2.1962091259182E+01
(PID.TID 0000.0001) %MON dynstat_vvel_min             =  -4.0049171582868E+01
(PID.TID 0000.0001) %MON dynstat_vvel_mean            =  -7.1849740768759E-03
(PID.TID 0000.0001) %MON dynstat_vvel_sd              =   4.3087683579306E+00
(PID.TID 0000.0001) %MON dynstat_vvel_del2            =   3.3667134842875E-01
(PID.TID 0000.0001) %MON dynstat_wvel_max             =   7.6947054867924E-01
(PID.TID 0000.0001) %MON dynstat_wvel_min             =  -2.0845225302944E+00
(PID.TID 0000.0001) %MON dynstat_wvel_mean            =   6.4183854080726E-19
(PID.TID 0000.0001) %MON dynstat_wvel_sd              =   9.9800652143237E-02
(PID.TID 0000.0001) %MON dynstat_wvel_del2            =   1.0741940547841E-02
(PID.TID 0000.0001) %MON dynstat_theta_max            =   4.5723736650747E+02
(PID.TID 0000.0001) %MON dynstat_theta_min            =   3.0711412013052E+02
(PID.TID 0000.0001) %MON dynstat_theta_mean           =   3.6631698914773E+02
(PID.TID 0000.0001) %MON dynstat_theta_sd             =   3.6657050633187E+01
(PID.TID 0000.0001) %MON dynstat_theta_del2           =   2.5642513063273E-01
(PID.TID 0000.0001) %MON dynstat_salt_max             =   5.8427897644438E+01
(PID.TID 0000.0001) %MON dynstat_salt_min             =  -5.4704070454916E+00
(PID.TID 0000.0001) %MON dynstat_salt_mean            =   1.2319182459293E+01
(PID.TID 0000.0001) %MON dynstat_salt_sd              =   1.0792305745806E+01
(PID.TID 0000.0001) %MON dynstat_salt_del2            =   2.4238687394629E-01
(PID.TID 0000.0001) %MON advcfl_uvel_max              =   8.7527259267460E-02
(PID.TID 0000.0001) %MON advcfl_vvel_max              =   7.6848510884558E-02
(PID.TID 0000.0001) %MON advcfl_wvel_max              =   6.1589983693288E-02
(PID.TID 0000.0001) %MON advcfl_W_hf_max              =   6.1589983693288E-02
(PID.TID 0000.0001) %MON ke_max                       =   1.0816108393930E+03
(PID.TID 0000.0001) %MON ke_mean                      =   7.1264194790819E+01
(PID.TID 0000.0001) %MON ke_volint                    =   1.9391330147980E+21
(PID.TID 0000.0001) %MON ke_volmean                   =   7.1083208414268E+01
(PID.TID 0000.0001) // =======================================================
(PID.TID 0000.0001) // End MONITOR dynamic field statistics
(PID.TID 0000.0001) // =======================================================
 cg2d: Sum(rhs),rhsMax =  -9.61745172389783E-09  3.11607229797285E+03
(PID.TID 0000.0001)                    cg2d_init_res =    7.49410268927577E+02
(PID.TID 0000.0001)                       cg2d_iters =    16
(PID.TID 0000.0001)                         cg2d_res =    8.35654997314209E-13
(PID.TID 0000.0001) // =======================================================
(PID.TID 0000.0001) // Begin MONITOR dynamic field statistics
(PID.TID 0000.0001) // =======================================================
(PID.TID 0000.0001) %MON time_tsnumber                =                  8642
(PID.TID 0000.0001) %MON time_secondsf                =   5.1852000000000E+06
(PID.TID 0000.0001) %MON time_secondsi                =               5185200
(PID.TID 0000.0001) %MON dynstat_eta_max              =   9.8862618209099E+02
(PID.TID 0000.0001) %MON dynstat_eta_min              =  -1.4632957322564E+03
(PID.TID 0000.0001) %MON dynstat_eta_mean             =   1.4082894302786E-12
(PID.TID 0000.0001) %MON dynstat_eta_sd               =   4.5611837876968E+02
(PID.TID 0000.0001) %MON dynstat_eta_del2             =   1.2131051922112E+01
(PID.TID 0000.0001) %MON dynstat_uvel_max             =   4.4156887282282E+01
(PID.TID 0000.0001) %MON dynstat_uvel_min             =  -3.1611695754074E+01
(PID.TID 0000.0001) %MON dynstat_uvel_mean            =   4.0512155422680E+00
(PID.TID 0000.0001) %MON dynstat_uvel_sd              =   1.0388665274840E+01
(PID.TID 0000.0001) %MON dynstat_uvel_del2            =   6.6705731325346E-01
(PID.TID 0000.0001) %MON dynstat_vvel_max             =   2.1995083590041E+01
(PID.TID 0000.0001) %MON dynstat_vvel_min             =  -3.9907030052501E+01
(PID.TID 0000.0001) %MON dynstat_vvel_mean            =  -7.0699115705399E-03
(PID.TID 0000.0001) %MON dynstat_vvel_sd              =   4.3099564531191E+00
(PID.TID 0000.0001) %MON dynstat_vvel_del2            =   3.3703024134887E-01
(PID.TID 0000.0001) %MON dynstat_wvel_max             =   7.7533762657307E-01
(PID.TID 0000.0001) %MON dynstat_wvel_min             =  -2.0722350608456E+00
(PID.TID 0000.0001) %MON dynstat_wvel_mean            =  -2.0066791771058E-20
(PID.TID 0000.0001) %MON dynstat_wvel_sd              =   9.9815604009808E-02
(PID.TID 0000.0001) %MON dynstat_wvel_del2            =   1.0811442464321E-02
(PID.TID 0000.0001) %MON dynstat_theta_max            =   4.5725203988036E+02
(PID.TID 0000.0001) %MON dynstat_theta_min            =   3.0706697194796E+02
(PID.TID 0000.0001) %MON dynstat_theta_mean           =   3.6631766749647E+02
(PID.TID 0000.0001) %MON dynstat_theta_sd             =   3.6656599310524E+01
(PID.TID 0000.0001) %MON dynstat_theta_del2           =   2.5647905535579E-01
(PID.TID 0000.0001) %MON dynstat_salt_max             =   5.8422790062100E+01
(PID.TID 0000.0001) %MON dynstat_salt_min             =  -5.4701298824497E+00
(PID.TID 0000.0001) %MON dynstat_salt_mean            =   1.2319021517362E+01
(PID.TID 0000.0001) %MON dynstat_salt_sd              =   1.0792607491268E+01
(PID.TID 0000.0001) %MON dynstat_salt_del2            =   2.4241842511335E-01
(PID.TID 0000.0001) %MON advcfl_uvel_max              =   8.7348337571759E-02
(PID.TID 0000.0001) %MON advcfl_vvel_max              =   7.6575762048270E-02
(PID.TID 0000.0001) %MON advcfl_wvel_max              =   6.1102667009279E-02
(PID.TID 0000.0001) %MON advcfl_W_hf_max              =   6.1102667009279E-02
(PID.TID 0000.0001) %MON ke_max                       =   1.0793608129750E+03
(PID.TID 0000.0001) %MON ke_mean                      =   7.1272859685081E+01
(PID.TID 0000.0001) %MON ke_volint                    =   1.9393403331006E+21
(PID.TID 0000.0001) %MON ke_volmean                   =   7.1090808125065E+01
(PID.TID 0000.0001) // =======================================================
(PID.TID 0000.0001) // End MONITOR dynamic field statistics
(PID.TID 0000.0001) // =======================================================
 cg2d: Sum(rhs),rhsMax =  -9.41986399993766E-09  3.12288672883856E+03
(PID.TID 0000.0001)                    cg2d_init_res =    1.42372365373527E+03
(PID.TID 0000.0001)                       cg2d_iters =    16
(PID.TID 0000.0001)                         cg2d_res =    1.02305381470300E-12
(PID.TID 0000.0001) // =======================================================
(PID.TID 0000.0001) // Begin MONITOR dynamic field statistics
(PID.TID 0000.0001) // =======================================================
(PID.TID 0000.0001) %MON time_tsnumber                =                  8643
(PID.TID 0000.0001) %MON time_secondsf                =   5.1858000000000E+06
(PID.TID 0000.0001) %MON time_secondsi                =               5185800
(PID.TID 0000.0001) %MON dynstat_eta_max              =   9.8844328201246E+02
(PID.TID 0000.0001) %MON dynstat_eta_min              =  -1.4653026820302E+03
(PID.TID 0000.0001) %MON dynstat_eta_mean             =   1.4247824947474E-12
(PID.TID 0000.0001) %MON dynstat_eta_sd               =   4.5628104769960E+02
(PID.TID 0000.0001) %MON dynstat_eta_del2             =   1.2796280499815E+01
(PID.TID 0000.0001) %MON dynstat_uvel_max             =   4.4079242531913E+01
(PID.TID 0000.0001) %MON dynstat_uvel_min             =  -3.1857783855597E+01
(PID.TID 0000.0001) %MON dynstat_uvel_mean            =   4.0516530093961E+00
(PID.TID 0000.0001) %MON dynstat_uvel_sd              =   1.0388752644203E+01
(PID.TID 0000.0001) %MON dynstat_uvel_del2            =   6.6706170875445E-01
(PID.TID 0000.0001) %MON dynstat_vvel_max             =   2.2013207911318E+01
(PID.TID 0000.0001) %MON dynstat_vvel_min             =  -3.9768401822960E+01
(PID.TID 0000.0001) %MON dynstat_vvel_mean            =  -6.9531455027077E-03
(PID.TID 0000.0001) %MON dynstat_vvel_sd              =   4.3111171274681E+00
(PID.TID 0000.0001) %MON dynstat_vvel_del2            =   3.3742784605871E-01
(PID.TID 0000.0001) %MON dynstat_wvel_max             =   7.7962732805286E-01
(PID.TID 0000.0001) %MON dynstat_wvel_min             =  -2.0603000916356E+00
(PID.TID 0000.0001) %MON dynstat_wvel_mean            =   1.4763172319558E-18
(PID.TID 0000.0001) %MON dynstat_wvel_sd              =   9.9723242727776E-02
(PID.TID 0000.0001) %MON dynstat_wvel_del2            =   1.0584803402446E-02
(PID.TID 0000.0001) %MON dynstat_theta_max            =   4.5726682008146E+02
(PID.TID 0000.0001) %MON dynstat_theta_min            =   3.0702289522126E+02
(PID.TID 0000.0001) %MON dynstat_theta_mean           =   3.6631834688725E+02
(PID.TID 0000.0001) %MON dynstat_theta_sd             =   3.6656143775927E+01
(PID.TID 0000.0001) %MON dynstat_theta_del2           =   2.5649993617160E-01
(PID.TID 0000.0001) %MON dynstat_salt_max             =   5.8417922192917E+01
(PID.TID 0000.0001) %MON dynstat_salt_min             =  -5.4699433547802E+00
(PID.TID 0000.0001) %MON dynstat_salt_mean            =   1.2318936749590E+01
(PID.TID 0000.0001) %MON dynstat_salt_sd              =   1.0792827497389E+01
(PID.TID 0000.0001) %MON dynstat_salt_del2            =   2.4242804221362E-01
(PID.TID 0000.0001) %MON advcfl_uvel_max              =   8.7194745679681E-02
(PID.TID 0000.0001) %MON advcfl_vvel_max              =   7.6309754723131E-02
(PID.TID 0000.0001) %MON advcfl_wvel_max              =   6.0620741072153E-02
(PID.TID 0000.0001) %MON advcfl_W_hf_max              =   6.0620741072153E-02
(PID.TID 0000.0001) %MON ke_max                       =   1.0769575340893E+03
(PID.TID 0000.0001) %MON ke_mean                      =   7.1281364290780E+01
(PID.TID 0000.0001) %MON ke_volint                    =   1.9395445362205E+21
(PID.TID 0000.0001) %MON ke_volmean                   =   7.1098293641953E+01
(PID.TID 0000.0001) // =======================================================
(PID.TID 0000.0001) // End MONITOR dynamic field statistics
(PID.TID 0000.0001) // =======================================================
 cg2d: Sum(rhs),rhsMax =  -9.57402335188817E-09  3.12972209401965E+03
(PID.TID 0000.0001)                    cg2d_init_res =    1.94818755360776E+03
(PID.TID 0000.0001)                       cg2d_iters =    16
(PID.TID 0000.0001)                         cg2d_res =    1.14138899771572E-12
(PID.TID 0000.0001) // =======================================================
(PID.TID 0000.0001) // Begin MONITOR dynamic field statistics
(PID.TID 0000.0001) // =======================================================
(PID.TID 0000.0001) %MON time_tsnumber                =                  8644
(PID.TID 0000.0001) %MON time_secondsf                =   5.1864000000000E+06
(PID.TID 0000.0001) %MON time_secondsi                =               5186400
(PID.TID 0000.0001) %MON dynstat_eta_max              =   9.8855860078851E+02
(PID.TID 0000.0001) %MON dynstat_eta_min              =  -1.4669737034879E+03
(PID.TID 0000.0001) %MON dynstat_eta_mean             =   1.5011926643967E-12
(PID.TID 0000.0001) %MON dynstat_eta_sd               =   4.5643858932777E+02
(PID.TID 0000.0001) %MON dynstat_eta_del2             =   1.3395421190115E+01
(PID.TID 0000.0001) %MON dynstat_uvel_max             =   4.3996696343136E+01
(PID.TID 0000.0001) %MON dynstat_uvel_min             =  -3.2087873202160E+01
(PID.TID 0000.0001) %MON dynstat_uvel_mean            =   4.0520889367277E+00
(PID.TID 0000.0001) %MON dynstat_uvel_sd              =   1.0388852018036E+01
(PID.TID 0000.0001) %MON dynstat_uvel_del2            =   6.6706966593229E-01
(PID.TID 0000.0001) %MON dynstat_vvel_max             =   2.2017426098486E+01
(PID.TID 0000.0001) %MON dynstat_vvel_min             =  -3.9624670792163E+01
(PID.TID 0000.0001) %MON dynstat_vvel_mean            =  -6.8310513176911E-03
(PID.TID 0000.0001) %MON dynstat_vvel_sd              =   4.3122343516297E+00
(PID.TID 0000.0001) %MON dynstat_vvel_del2            =   3.3774578287301E-01
(PID.TID 0000.0001) %MON dynstat_wvel_max             =   7.8097211858700E-01
(PID.TID 0000.0001) %MON dynstat_wvel_min             =  -2.0501353433327E+00
(PID.TID 0000.0001) %MON dynstat_wvel_mean            =  -4.6289216799492E-19
(PID.TID 0000.0001) %MON dynstat_wvel_sd              =   9.9645376480595E-02
(PID.TID 0000.0001) %MON dynstat_wvel_del2            =   1.0379958740828E-02
(PID.TID 0000.0001) %MON dynstat_theta_max            =   4.5728157775949E+02
(PID.TID 0000.0001) %MON dynstat_theta_min            =   3.0698183213498E+02
(PID.TID 0000.0001) %MON dynstat_theta_mean           =   3.6631902688238E+02
(PID.TID 0000.0001) %MON dynstat_theta_sd             =   3.6655684515047E+01
(PID.TID 0000.0001) %MON dynstat_theta_del2           =   2.5650417124725E-01
(PID.TID 0000.0001) %MON dynstat_salt_max             =   5.8413279991302E+01
(PID.TID 0000.0001) %MON dynstat_salt_min             =  -5.4697505370601E+00
(PID.TID 0000.0001) %MON dynstat_salt_mean            =   1.2318851722881E+01
(PID.TID 0000.0001) %MON dynstat_salt_sd              =   1.0793050468687E+01
(PID.TID 0000.0001) %MON dynstat_salt_del2            =   2.4243298960661E-01
(PID.TID 0000.0001) %MON advcfl_uvel_max              =   8.7031458074819E-02
(PID.TID 0000.0001) %MON advcfl_vvel_max              =   7.6033955867672E-02
(PID.TID 0000.0001) %MON advcfl_wvel_max              =   6.0172643062958E-02
(PID.TID 0000.0001) %MON advcfl_W_hf_max              =   6.0172643062958E-02
(PID.TID 0000.0001) %MON ke_max                       =   1.0743957373259E+03
(PID.TID 0000.0001) %MON ke_mean                      =   7.1289763419094E+01
(PID.TID 0000.0001) %MON ke_volint                    =   1.9397471011425E+21
(PID.TID 0000.0001) %MON ke_volmean                   =   7.1105719107076E+01
(PID.TID 0000.0001) // =======================================================
(PID.TID 0000.0001) // End MONITOR dynamic field statistics
(PID.TID 0000.0001) // =======================================================
 cg2d: Sum(rhs),rhsMax =  -9.06015884538647E-09  3.13583409006089E+03
(PID.TID 0000.0001)                    cg2d_init_res =    2.33294890444083E+03
(PID.TID 0000.0001)                       cg2d_iters =    16
(PID.TID 0000.0001)                         cg2d_res =    1.20456928353407E-12
(PID.TID 0000.0001) // =======================================================
(PID.TID 0000.0001) // Begin MONITOR dynamic field statistics
(PID.TID 0000.0001) // =======================================================
(PID.TID 0000.0001) %MON time_tsnumber                =                  8645
(PID.TID 0000.0001) %MON time_secondsf                =   5.1870000000000E+06
(PID.TID 0000.0001) %MON time_secondsi                =               5187000
(PID.TID 0000.0001) %MON dynstat_eta_max              =   9.8879869861633E+02
(PID.TID 0000.0001) %MON dynstat_eta_min              =  -1.4682973474976E+03
(PID.TID 0000.0001) %MON dynstat_eta_mean             =   1.4375847966417E-12
(PID.TID 0000.0001) %MON dynstat_eta_sd               =   4.5659317433532E+02
(PID.TID 0000.0001) %MON dynstat_eta_del2             =   1.3944581907657E+01
(PID.TID 0000.0001) %MON dynstat_uvel_max             =   4.3909021890294E+01
(PID.TID 0000.0001) %MON dynstat_uvel_min             =  -3.2307374807262E+01
(PID.TID 0000.0001) %MON dynstat_uvel_mean            =   4.0525238957515E+00
(PID.TID 0000.0001) %MON dynstat_uvel_sd              =   1.0388962637496E+01
(PID.TID 0000.0001) %MON dynstat_uvel_del2            =   6.6708130032442E-01
(PID.TID 0000.0001) %MON dynstat_vvel_max             =   2.2008066653770E+01
(PID.TID 0000.0001) %MON dynstat_vvel_min             =  -3.9473930465047E+01
(PID.TID 0000.0001) %MON dynstat_vvel_mean            =  -6.7014001120101E-03
(PID.TID 0000.0001) %MON dynstat_vvel_sd              =   4.3133151063007E+00
(PID.TID 0000.0001) %MON dynstat_vvel_del2            =   3.3796892966713E-01
(PID.TID 0000.0001) %MON dynstat_wvel_max             =   7.7991473506625E-01
(PID.TID 0000.0001) %MON dynstat_wvel_min             =  -2.0422352445296E+00
(PID.TID 0000.0001) %MON dynstat_wvel_mean            =   7.2194637781125E-18
(PID.TID 0000.0001) %MON dynstat_wvel_sd              =   9.9600807885624E-02
(PID.TID 0000.0001) %MON dynstat_wvel_del2            =   1.0245259705795E-02
(PID.TID 0000.0001) %MON dynstat_theta_max            =   4.5729627383761E+02
(PID.TID 0000.0001) %MON dynstat_theta_min            =   3.0694349659834E+02
(PID.TID 0000.0001) %MON dynstat_theta_mean           =   3.6631970959174E+02
(PID.TID 0000.0001) %MON dynstat_theta_sd             =   3.6655222213172E+01
(PID.TID 0000.0001) %MON dynstat_theta_del2           =   2.5649592439089E-01
(PID.TID 0000.0001) %MON dynstat_salt_max             =   5.8408834374061E+01
(PID.TID 0000.0001) %MON dynstat_salt_min             =  -5.4695480512142E+00
(PID.TID 0000.0001) %MON dynstat_salt_mean            =   1.2318765393639E+01
(PID.TID 0000.0001) %MON dynstat_salt_sd              =   1.0793273893957E+01
(PID.TID 0000.0001) %MON dynstat_salt_del2            =   2.4243647859154E-01
(PID.TID 0000.0001) %MON advcfl_uvel_max              =   8.6858026065123E-02
(PID.TID 0000.0001) %MON advcfl_vvel_max              =   7.5744707196319E-02
(PID.TID 0000.0001) %MON advcfl_wvel_max              =   5.9761011657684E-02
(PID.TID 0000.0001) %MON advcfl_W_hf_max              =   5.9761011657684E-02
(PID.TID 0000.0001) %MON ke_max                       =   1.0716696274285E+03
(PID.TID 0000.0001) %MON ke_mean                      =   7.1298083501151E+01
(PID.TID 0000.0001) %MON ke_volint                    =   1.9399486609430E+21
(PID.TID 0000.0001) %MON ke_volmean                   =   7.1113107727248E+01
(PID.TID 0000.0001) // =======================================================
(PID.TID 0000.0001) // End MONITOR dynamic field statistics
(PID.TID 0000.0001) // =======================================================
 cg2d: Sum(rhs),rhsMax =  -9.43396116781514E-09  3.14122385908766E+03
(PID.TID 0000.0001)                    cg2d_init_res =    2.62726750629020E+03
(PID.TID 0000.0001)                       cg2d_iters =    16
(PID.TID 0000.0001)                         cg2d_res =    1.23070905408060E-12
(PID.TID 0000.0001) // =======================================================
(PID.TID 0000.0001) // Begin MONITOR dynamic field statistics
(PID.TID 0000.0001) // =======================================================
(PID.TID 0000.0001) %MON time_tsnumber                =                  8646
(PID.TID 0000.0001) %MON time_secondsf                =   5.1876000000000E+06
(PID.TID 0000.0001) %MON time_secondsi                =               5187600
(PID.TID 0000.0001) %MON dynstat_eta_max              =   9.8910023862093E+02
(PID.TID 0000.0001) %MON dynstat_eta_min              =  -1.4694105854029E+03
(PID.TID 0000.0001) %MON dynstat_eta_mean             =   1.4370296690000E-12
(PID.TID 0000.0001) %MON dynstat_eta_sd               =   4.5674708777307E+02
(PID.TID 0000.0001) %MON dynstat_eta_del2             =   1.4451230979463E+01
(PID.TID 0000.0001) %MON dynstat_uvel_max             =   4.3816135867568E+01
(PID.TID 0000.0001) %MON dynstat_uvel_min             =  -3.2518518756966E+01
(PID.TID 0000.0001) %MON dynstat_uvel_mean            =   4.0529585017274E+00
(PID.TID 0000.0001) %MON dynstat_uvel_sd              =   1.0389076700814E+01
(PID.TID 0000.0001) %MON dynstat_uvel_del2            =   6.6710896986944E-01
(PID.TID 0000.0001) %MON dynstat_vvel_max             =   2.1985138882861E+01
(PID.TID 0000.0001) %MON dynstat_vvel_min             =  -3.9317572697119E+01
(PID.TID 0000.0001) %MON dynstat_vvel_mean            =  -6.5639092551396E-03
(PID.TID 0000.0001) %MON dynstat_vvel_sd              =   4.3143798918163E+00
(PID.TID 0000.0001) %MON dynstat_vvel_del2            =   3.3814533712154E-01
(PID.TID 0000.0001) %MON dynstat_wvel_max             =   7.7746591244859E-01
(PID.TID 0000.0001) %MON dynstat_wvel_min             =  -2.0364336197169E+00
(PID.TID 0000.0001) %MON dynstat_wvel_mean            =   3.6774904089917E-19
(PID.TID 0000.0001) %MON dynstat_wvel_sd              =   9.9582082250093E-02
(PID.TID 0000.0001) %MON dynstat_wvel_del2            =   1.0162879339079E-02
(PID.TID 0000.0001) %MON dynstat_theta_max            =   4.5731096322603E+02
(PID.TID 0000.0001) %MON dynstat_theta_min            =   3.0690765768007E+02
(PID.TID 0000.0001) %MON dynstat_theta_mean           =   3.6632039405015E+02
(PID.TID 0000.0001) %MON dynstat_theta_sd             =   3.6654757907876E+01
(PID.TID 0000.0001) %MON dynstat_theta_del2           =   2.5648033789287E-01
(PID.TID 0000.0001) %MON dynstat_salt_max             =   5.8404549448053E+01
(PID.TID 0000.0001) %MON dynstat_salt_min             =  -5.4693434537004E+00
(PID.TID 0000.0001) %MON dynstat_salt_mean            =   1.2318678096667E+01
(PID.TID 0000.0001) %MON dynstat_salt_sd              =   1.0793496710926E+01
(PID.TID 0000.0001) %MON dynstat_salt_del2            =   2.4244322953764E-01
(PID.TID 0000.0001) %MON advcfl_uvel_max              =   8.6674284860340E-02
(PID.TID 0000.0001) %MON advcfl_vvel_max              =   7.5444679476504E-02
(PID.TID 0000.0001) %MON advcfl_wvel_max              =   5.9378818561630E-02
(PID.TID 0000.0001) %MON advcfl_W_hf_max              =   5.9378818561630E-02
(PID.TID 0000.0001) %MON ke_max                       =   1.0687778958826E+03
(PID.TID 0000.0001) %MON ke_mean                      =   7.1306334102319E+01
(PID.TID 0000.0001) %MON ke_volint                    =   1.9401493873862E+21
(PID.TID 0000.0001) %MON ke_volmean                   =   7.1120465798864E+01
(PID.TID 0000.0001) // =======================================================
(PID.TID 0000.0001) // End MONITOR dynamic field statistics
(PID.TID 0000.0001) // =======================================================
 cg2d: Sum(rhs),rhsMax =  -8.98626240086742E-09  3.14636054082897E+03
(PID.TID 0000.0001)                    cg2d_init_res =    2.86757082135140E+03
(PID.TID 0000.0001)                       cg2d_iters =    16
(PID.TID 0000.0001)                         cg2d_res =    1.23723816536396E-12
(PID.TID 0000.0001) // =======================================================
(PID.TID 0000.0001) // Begin MONITOR dynamic field statistics
(PID.TID 0000.0001) // =======================================================
(PID.TID 0000.0001) %MON time_tsnumber                =                  8647
(PID.TID 0000.0001) %MON time_secondsf                =   5.1882000000000E+06
(PID.TID 0000.0001) %MON time_secondsi                =               5188200
(PID.TID 0000.0001) %MON dynstat_eta_max              =   9.8946837558376E+02
(PID.TID 0000.0001) %MON dynstat_eta_min              =  -1.4705166110056E+03
(PID.TID 0000.0001) %MON dynstat_eta_mean             =   1.4655283366999E-12
(PID.TID 0000.0001) %MON dynstat_eta_sd               =   4.5690114027431E+02
(PID.TID 0000.0001) %MON dynstat_eta_del2             =   1.4939315620550E+01
(PID.TID 0000.0001) %MON dynstat_uvel_max             =   4.3718114748744E+01
(PID.TID 0000.0001) %MON dynstat_uvel_min             =  -3.2720936081766E+01
(PID.TID 0000.0001) %MON dynstat_uvel_mean            =   4.0533931724370E+00
(PID.TID 0000.0001) %MON dynstat_uvel_sd              =   1.0389184999754E+01
(PID.TID 0000.0001) %MON dynstat_uvel_del2            =   6.6714992965422E-01
(PID.TID 0000.0001) %MON dynstat_vvel_max             =   2.1948764915477E+01
(PID.TID 0000.0001) %MON dynstat_vvel_min             =  -3.9157624505972E+01
(PID.TID 0000.0001) %MON dynstat_vvel_mean            =  -6.4197008004737E-03
(PID.TID 0000.0001) %MON dynstat_vvel_sd              =   4.3154502435835E+00
(PID.TID 0000.0001) %MON dynstat_vvel_del2            =   3.3831057978664E-01
(PID.TID 0000.0001) %MON dynstat_wvel_max             =   7.7435555526757E-01
(PID.TID 0000.0001) %MON dynstat_wvel_min             =  -2.0322294815275E+00
(PID.TID 0000.0001) %MON dynstat_wvel_mean            =   5.6176060606607E-19
(PID.TID 0000.0001) %MON dynstat_wvel_sd              =   9.9581846533021E-02
(PID.TID 0000.0001) %MON dynstat_wvel_del2            =   1.0112972593386E-02
(PID.TID 0000.0001) %MON dynstat_theta_max            =   4.5732572284604E+02
(PID.TID 0000.0001) %MON dynstat_theta_min            =   3.0687419618865E+02
(PID.TID 0000.0001) %MON dynstat_theta_mean           =   3.6632108223537E+02
(PID.TID 0000.0001) %MON dynstat_theta_sd             =   3.6654293108436E+01
(PID.TID 0000.0001) %MON dynstat_theta_del2           =   2.5645814586447E-01
(PID.TID 0000.0001) %MON dynstat_salt_max             =   5.8400397269804E+01
(PID.TID 0000.0001) %MON dynstat_salt_min             =  -5.4691447945766E+00
(PID.TID 0000.0001) %MON dynstat_salt_mean            =   1.2318589384439E+01
(PID.TID 0000.0001) %MON dynstat_salt_sd              =   1.0793718420604E+01
(PID.TID 0000.0001) %MON dynstat_salt_del2            =   2.4245660426880E-01
(PID.TID 0000.0001) %MON advcfl_uvel_max              =   8.6480385736031E-02
(PID.TID 0000.0001) %MON advcfl_vvel_max              =   7.5137762258930E-02
(PID.TID 0000.0001) %MON advcfl_wvel_max              =   5.9015175269523E-02
(PID.TID 0000.0001) %MON advcfl_W_hf_max              =   5.9015175269523E-02
(PID.TID 0000.0001) %MON ke_max                       =   1.0657250416894E+03
(PID.TID 0000.0001) %MON ke_mean                      =   7.1314512404386E+01
(PID.TID 0000.0001) %MON ke_volint                    =   1.9403491513642E+21
(PID.TID 0000.0001) %MON ke_volmean                   =   7.1127788589190E+01
(PID.TID 0000.0001) // =======================================================
(PID.TID 0000.0001) // End MONITOR dynamic field statistics
(PID.TID 0000.0001) // =======================================================
 cg2d: Sum(rhs),rhsMax =  -9.65928848017938E-09  3.15167707804901E+03
(PID.TID 0000.0001)                    cg2d_init_res =    3.07378647133909E+03
(PID.TID 0000.0001)                       cg2d_iters =    16
(PID.TID 0000.0001)                         cg2d_res =    1.23735547924100E-12
(PID.TID 0000.0001) // =======================================================
(PID.TID 0000.0001) // Begin MONITOR dynamic field statistics
(PID.TID 0000.0001) // =======================================================
(PID.TID 0000.0001) %MON time_tsnumber                =                  8648
(PID.TID 0000.0001) %MON time_secondsf                =   5.1888000000000E+06
(PID.TID 0000.0001) %MON time_secondsi                =               5188800
(PID.TID 0000.0001) %MON dynstat_eta_max              =   9.8992592579543E+02
(PID.TID 0000.0001) %MON dynstat_eta_min              =  -1.4717565288328E+03
(PID.TID 0000.0001) %MON dynstat_eta_mean             =   1.5239946181943E-12
(PID.TID 0000.0001) %MON dynstat_eta_sd               =   4.5705527301711E+02
(PID.TID 0000.0001) %MON dynstat_eta_del2             =   1.5405125694757E+01
(PID.TID 0000.0001) %MON dynstat_uvel_max             =   4.3615111171694E+01
(PID.TID 0000.0001) %MON dynstat_uvel_min             =  -3.2913281628022E+01
(PID.TID 0000.0001) %MON dynstat_uvel_mean            =   4.0538280680563E+00
(PID.TID 0000.0001) %MON dynstat_uvel_sd              =   1.0389280248653E+01
(PID.TID 0000.0001) %MON dynstat_uvel_del2            =   6.6719213933946E-01
(PID.TID 0000.0001) %MON dynstat_vvel_max             =   2.1899099216081E+01
(PID.TID 0000.0001) %MON dynstat_vvel_min             =  -3.8995395607840E+01
(PID.TID 0000.0001) %MON dynstat_vvel_mean            =  -6.2702696642348E-03
(PID.TID 0000.0001) %MON dynstat_vvel_sd              =   4.3165416102892E+00
(PID.TID 0000.0001) %MON dynstat_vvel_del2            =   3.3848381440705E-01
(PID.TID 0000.0001) %MON dynstat_wvel_max             =   7.7090389129560E-01
(PID.TID 0000.0001) %MON dynstat_wvel_min             =  -2.0290588549533E+00
(PID.TID 0000.0001) %MON dynstat_wvel_mean            =   3.0335013013747E-18
(PID.TID 0000.0001) %MON dynstat_wvel_sd              =   9.9594296218212E-02
(PID.TID 0000.0001) %MON dynstat_wvel_del2            =   1.0082575507017E-02
(PID.TID 0000.0001) %MON dynstat_theta_max            =   4.5734059925897E+02
(PID.TID 0000.0001) %MON dynstat_theta_min            =   3.0684307047662E+02
(PID.TID 0000.0001) %MON dynstat_theta_mean           =   3.6632177810094E+02
(PID.TID 0000.0001) %MON dynstat_theta_sd             =   3.6653830348272E+01
(PID.TID 0000.0001) %MON dynstat_theta_del2           =   2.5642439773287E-01
(PID.TID 0000.0001) %MON dynstat_salt_max             =   5.8396356190128E+01
(PID.TID 0000.0001) %MON dynstat_salt_min             =  -5.4689589131615E+00
(PID.TID 0000.0001) %MON dynstat_salt_mean            =   1.2318498275518E+01
(PID.TID 0000.0001) %MON dynstat_salt_sd              =   1.0793938512958E+01
(PID.TID 0000.0001) %MON dynstat_salt_del2            =   2.4247299955340E-01
(PID.TID 0000.0001) %MON advcfl_uvel_max              =   8.6276630630701E-02
(PID.TID 0000.0001) %MON advcfl_vvel_max              =   7.4826468697761E-02
(PID.TID 0000.0001) %MON advcfl_wvel_max              =   5.8659491122877E-02
(PID.TID 0000.0001) %MON advcfl_W_hf_max              =   5.8659491122877E-02
(PID.TID 0000.0001) %MON ke_max                       =   1.0625186919013E+03
(PID.TID 0000.0001) %MON ke_mean                      =   7.1322607082054E+01
(PID.TID 0000.0001) %MON ke_volint                    =   1.9405476540192E+21
(PID.TID 0000.0001) %MON ke_volmean                   =   7.1135065142932E+01
(PID.TID 0000.0001) // =======================================================
(PID.TID 0000.0001) // End MONITOR dynamic field statistics
(PID.TID 0000.0001) // =======================================================
 cg2d: Sum(rhs),rhsMax =  -9.85505721473601E-09  3.15725086976541E+03
(PID.TID 0000.0001)                    cg2d_init_res =    3.25615532791645E+03
(PID.TID 0000.0001)                       cg2d_iters =    16
(PID.TID 0000.0001)                         cg2d_res =    1.23865348818631E-12
(PID.TID 0000.0001) // =======================================================
(PID.TID 0000.0001) // Begin MONITOR dynamic field statistics
(PID.TID 0000.0001) // =======================================================
(PID.TID 0000.0001) %MON time_tsnumber                =                  8649
(PID.TID 0000.0001) %MON time_secondsf                =   5.1894000000000E+06
(PID.TID 0000.0001) %MON time_secondsi                =               5189400
(PID.TID 0000.0001) %MON dynstat_eta_max              =   9.9048153433298E+02
(PID.TID 0000.0001) %MON dynstat_eta_min              =  -1.4731336200337E+03
(PID.TID 0000.0001) %MON dynstat_eta_mean             =   1.3758928867610E-12
(PID.TID 0000.0001) %MON dynstat_eta_sd               =   4.5720919901492E+02
(PID.TID 0000.0001) %MON dynstat_eta_del2             =   1.5853632832411E+01
(PID.TID 0000.0001) %MON dynstat_uvel_max             =   4.3507298317287E+01
(PID.TID 0000.0001) %MON dynstat_uvel_min             =  -3.3094449970645E+01
(PID.TID 0000.0001) %MON dynstat_uvel_mean            =   4.0542631548233E+00
(PID.TID 0000.0001) %MON dynstat_uvel_sd              =   1.0389358734644E+01
(PID.TID 0000.0001) %MON dynstat_uvel_del2            =   6.6724548075662E-01
(PID.TID 0000.0001) %MON dynstat_vvel_max             =   2.1835955684594E+01
(PID.TID 0000.0001) %MON dynstat_vvel_min             =  -3.8831234148028E+01
(PID.TID 0000.0001) %MON dynstat_vvel_mean            =  -6.1169096931675E-03
(PID.TID 0000.0001) %MON dynstat_vvel_sd              =   4.3176604748844E+00
(PID.TID 0000.0001) %MON dynstat_vvel_del2            =   3.3868518546132E-01
(PID.TID 0000.0001) %MON dynstat_wvel_max             =   7.6717362770801E-01
(PID.TID 0000.0001) %MON dynstat_wvel_min             =  -2.0264511896616E+00
(PID.TID 0000.0001) %MON dynstat_wvel_mean            =  -2.0987010098642E-18
(PID.TID 0000.0001) %MON dynstat_wvel_sd              =   9.9614635629910E-02
(PID.TID 0000.0001) %MON dynstat_wvel_del2            =   1.0062901763821E-02
(PID.TID 0000.0001) %MON dynstat_theta_max            =   4.5735559647762E+02
(PID.TID 0000.0001) %MON dynstat_theta_min            =   3.0681428255021E+02
(PID.TID 0000.0001) %MON dynstat_theta_mean           =   3.6632248267585E+02
(PID.TID 0000.0001) %MON dynstat_theta_sd             =   3.6653369167394E+01
(PID.TID 0000.0001) %MON dynstat_theta_del2           =   2.5639178356249E-01
(PID.TID 0000.0001) %MON dynstat_salt_max             =   5.8392401681161E+01
(PID.TID 0000.0001) %MON dynstat_salt_min             =  -5.4687898477652E+00
(PID.TID 0000.0001) %MON dynstat_salt_mean            =   1.2318404515426E+01
(PID.TID 0000.0001) %MON dynstat_salt_sd              =   1.0794156519566E+01
(PID.TID 0000.0001) %MON dynstat_salt_del2            =   2.4248908495745E-01
(PID.TID 0000.0001) %MON advcfl_uvel_max              =   8.6063362119696E-02
(PID.TID 0000.0001) %MON advcfl_vvel_max              =   7.4511466832989E-02
(PID.TID 0000.0001) %MON advcfl_wvel_max              =   5.8303573373114E-02
(PID.TID 0000.0001) %MON advcfl_W_hf_max              =   5.8303573373114E-02
(PID.TID 0000.0001) %MON ke_max                       =   1.0591669697761E+03
(PID.TID 0000.0001) %MON ke_mean                      =   7.1330605294536E+01
(PID.TID 0000.0001) %MON ke_volint                    =   1.9407445748458E+21
(PID.TID 0000.0001) %MON ke_volmean                   =   7.1142283711255E+01
(PID.TID 0000.0001) // =======================================================
(PID.TID 0000.0001) // End MONITOR dynamic field statistics
(PID.TID 0000.0001) // =======================================================
 cg2d: Sum(rhs),rhsMax =  -9.37279764912091E-09  3.16277836997359E+03
(PID.TID 0000.0001)                    cg2d_init_res =    3.42039749565421E+03
(PID.TID 0000.0001)                       cg2d_iters =    16
(PID.TID 0000.0001)                         cg2d_res =    1.24342112469917E-12
(PID.TID 0000.0001) // =======================================================
(PID.TID 0000.0001) // Begin MONITOR dynamic field statistics
(PID.TID 0000.0001) // =======================================================
(PID.TID 0000.0001) %MON time_tsnumber                =                  8650
(PID.TID 0000.0001) %MON time_secondsf                =   5.1900000000000E+06
(PID.TID 0000.0001) %MON time_secondsi                =               5190000
(PID.TID 0000.0001) %MON dynstat_eta_max              =   9.9112144719581E+02
(PID.TID 0000.0001) %MON dynstat_eta_min              =  -1.4745199441861E+03
(PID.TID 0000.0001) %MON dynstat_eta_mean             =   1.3961505551742E-12
(PID.TID 0000.0001) %MON dynstat_eta_sd               =   4.5736271121328E+02
(PID.TID 0000.0001) %MON dynstat_eta_del2             =   1.6276353989367E+01
(PID.TID 0000.0001) %MON dynstat_uvel_max             =   4.3394853307670E+01
(PID.TID 0000.0001) %MON dynstat_uvel_min             =  -3.3264008711784E+01
(PID.TID 0000.0001) %MON dynstat_uvel_mean            =   4.0546982958978E+00
(PID.TID 0000.0001) %MON dynstat_uvel_sd              =   1.0389419692467E+01
(PID.TID 0000.0001) %MON dynstat_uvel_del2            =   6.6730588632734E-01
(PID.TID 0000.0001) %MON dynstat_vvel_max             =   2.1759369992726E+01
(PID.TID 0000.0001) %MON dynstat_vvel_min             =  -3.8664843361338E+01
(PID.TID 0000.0001) %MON dynstat_vvel_mean            =  -5.9605106862362E-03
(PID.TID 0000.0001) %MON dynstat_vvel_sd              =   4.3188063947368E+00
(PID.TID 0000.0001) %MON dynstat_vvel_del2            =   3.3890678188645E-01
(PID.TID 0000.0001) %MON dynstat_wvel_max             =   7.6314600168648E-01
(PID.TID 0000.0001) %MON dynstat_wvel_min             =  -2.0240767172832E+00
(PID.TID 0000.0001) %MON dynstat_wvel_mean            =   4.6264805940620E-18
(PID.TID 0000.0001) %MON dynstat_wvel_sd              =   9.9639674470981E-02
(PID.TID 0000.0001) %MON dynstat_wvel_del2            =   1.0048468735779E-02
(PID.TID 0000.0001) %MON dynstat_theta_max            =   4.5737069112379E+02
(PID.TID 0000.0001) %MON dynstat_theta_min            =   3.0678784645748E+02
(PID.TID 0000.0001) %MON dynstat_theta_mean           =   3.6632319476985E+02
(PID.TID 0000.0001) %MON dynstat_theta_sd             =   3.6652908597613E+01
(PID.TID 0000.0001) %MON dynstat_theta_del2           =   2.5636282114475E-01
(PID.TID 0000.0001) %MON dynstat_salt_max             =   5.8388515230787E+01
(PID.TID 0000.0001) %MON dynstat_salt_min             =  -5.4686388127780E+00
(PID.TID 0000.0001) %MON dynstat_salt_mean            =   1.2318308529042E+01
(PID.TID 0000.0001) %MON dynstat_salt_sd              =   1.0794372176912E+01
(PID.TID 0000.0001) %MON dynstat_salt_del2            =   2.4250393786303E-01
(PID.TID 0000.0001) %MON advcfl_uvel_max              =   8.5840930574747E-02
(PID.TID 0000.0001) %MON advcfl_vvel_max              =   7.4192187215543E-02
(PID.TID 0000.0001) %MON advcfl_wvel_max              =   5.7942006013140E-02
(PID.TID 0000.0001) %MON advcfl_W_hf_max              =   5.7942006013140E-02
(PID.TID 0000.0001) %MON ke_max                       =   1.0556777685696E+03
(PID.TID 0000.0001) %MON ke_mean                      =   7.1338495283465E+01
(PID.TID 0000.0001) %MON ke_volint                    =   1.9409396342239E+21
(PID.TID 0000.0001) %MON ke_volmean                   =   7.1149434044072E+01
(PID.TID 0000.0001) // =======================================================
(PID.TID 0000.0001) // End MONITOR dynamic field statistics
(PID.TID 0000.0001) // =======================================================
(PID.TID 0000.0001)  Seconds in section "ALL                [THE_MODEL_MAIN]":
(PID.TID 0000.0001)          User time:   6.059999942779541
(PID.TID 0000.0001)        System time:  0.1399999912828207
(PID.TID 0000.0001)    Wall clock time:   6.471255064010620
(PID.TID 0000.0001)         No. starts:           1
(PID.TID 0000.0001)          No. stops:           1
(PID.TID 0000.0001)  Seconds in section "INITIALISE_FIXED   [THE_MODEL_MAIN]":
(PID.TID 0000.0001)          User time:  0.1299999952316284
(PID.TID 0000.0001)        System time:  0.0000000000000000E+000
(PID.TID 0000.0001)    Wall clock time:  0.2356660366058350
(PID.TID 0000.0001)         No. starts:           1
(PID.TID 0000.0001)          No. stops:           1
(PID.TID 0000.0001)  Seconds in section "THE_MAIN_LOOP      [THE_MODEL_MAIN]":
(PID.TID 0000.0001)          User time:   5.919999718666077
(PID.TID 0000.0001)        System time:  0.1199999954551458
(PID.TID 0000.0001)    Wall clock time:   6.189039945602417
(PID.TID 0000.0001)         No. starts:           1
(PID.TID 0000.0001)          No. stops:           1
(PID.TID 0000.0001)  Seconds in section "INITIALISE_VARIA    [THE_MAIN_LOOP]":
(PID.TID 0000.0001)          User time:  4.0000006556510925E-002
(PID.TID 0000.0001)        System time:  3.9999997243285179E-002
(PID.TID 0000.0001)    Wall clock time:  9.3019962310791016E-002
(PID.TID 0000.0001)         No. starts:           1
(PID.TID 0000.0001)          No. stops:           1
(PID.TID 0000.0001)  Seconds in section "WRITE_STATE         [THE_MAIN_LOOP]":
(PID.TID 0000.0001)          User time:  9.9999904632568359E-003
(PID.TID 0000.0001)        System time:  1.0000001639127731E-002
(PID.TID 0000.0001)    Wall clock time:  7.9175949096679688E-002
(PID.TID 0000.0001)         No. starts:           1
(PID.TID 0000.0001)          No. stops:           1
(PID.TID 0000.0001)  Seconds in section "MONITOR             [THE_MAIN_LOOP]":
(PID.TID 0000.0001)          User time:  4.0000006556510925E-002
(PID.TID 0000.0001)        System time:  0.0000000000000000E+000
(PID.TID 0000.0001)    Wall clock time:  4.2554974555969238E-002
(PID.TID 0000.0001)         No. starts:           1
(PID.TID 0000.0001)          No. stops:           1
(PID.TID 0000.0001)  Seconds in section "MAIN LOOP           [THE_MAIN_LOOP]":
(PID.TID 0000.0001)          User time:   5.829999715089798
(PID.TID 0000.0001)        System time:  6.9999996572732925E-002
(PID.TID 0000.0001)    Wall clock time:   5.973399996757507
(PID.TID 0000.0001)         No. starts:           1
(PID.TID 0000.0001)          No. stops:           1
(PID.TID 0000.0001)  Seconds in section "FORWARD_STEP        [THE_MAIN_LOOP]":
(PID.TID 0000.0001)          User time:   5.829999715089798
(PID.TID 0000.0001)        System time:  6.9999996572732925E-002
(PID.TID 0000.0001)    Wall clock time:   5.971779108047485
(PID.TID 0000.0001)         No. starts:          10
(PID.TID 0000.0001)          No. stops:          10
(PID.TID 0000.0001)  Seconds in section "EXTERNAL_FIELDS_LOAD[THE_MAIN_LOOP]":
(PID.TID 0000.0001)          User time:  9.9999904632568359E-003
(PID.TID 0000.0001)        System time:  0.0000000000000000E+000
(PID.TID 0000.0001)    Wall clock time:  1.5151500701904297E-003
(PID.TID 0000.0001)         No. starts:          10
(PID.TID 0000.0001)          No. stops:          10
(PID.TID 0000.0001)  Seconds in section "THERMODYNAMICS      [THE_MAIN_LOOP]":
(PID.TID 0000.0001)          User time:   2.480000108480453
(PID.TID 0000.0001)        System time:  5.9999998658895493E-002
(PID.TID 0000.0001)    Wall clock time:   2.560814976692200
(PID.TID 0000.0001)         No. starts:          10
(PID.TID 0000.0001)          No. stops:          10
(PID.TID 0000.0001)  Seconds in section "AIM_DO_ATMOS_PHYS      [DYNAMICS]":
(PID.TID 0000.0001)          User time:   1.539999514818192
(PID.TID 0000.0001)        System time:  5.9999998658895493E-002
(PID.TID 0000.0001)    Wall clock time:   1.612488985061646
(PID.TID 0000.0001)         No. starts:          10
(PID.TID 0000.0001)          No. stops:          10
(PID.TID 0000.0001)  Seconds in section "SHAP_FILT           [THE_MAIN_LOOP]":
(PID.TID 0000.0001)          User time:  0.3100002110004425
(PID.TID 0000.0001)        System time:  0.0000000000000000E+000
(PID.TID 0000.0001)    Wall clock time:  0.3154108524322510
(PID.TID 0000.0001)         No. starts:          10
(PID.TID 0000.0001)          No. stops:          10
(PID.TID 0000.0001)  Seconds in section "DYNAMICS            [THE_MAIN_LOOP]":
(PID.TID 0000.0001)          User time:   1.449999958276749
(PID.TID 0000.0001)        System time:  9.9999979138374329E-003
(PID.TID 0000.0001)    Wall clock time:   1.449132919311523
(PID.TID 0000.0001)         No. starts:          10
(PID.TID 0000.0001)          No. stops:          10
(PID.TID 0000.0001)  Seconds in section "SOLVE_FOR_PRESSURE  [THE_MAIN_LOOP]":
(PID.TID 0000.0001)          User time:  0.2600003480911255
(PID.TID 0000.0001)        System time:  0.0000000000000000E+000
(PID.TID 0000.0001)    Wall clock time:  0.2714723348617554
(PID.TID 0000.0001)         No. starts:          10
(PID.TID 0000.0001)          No. stops:          10
(PID.TID 0000.0001)  Seconds in section "THE_CORRECTION_STEP [THE_MAIN_LOOP]":
(PID.TID 0000.0001)          User time:  0.7899999022483826
(PID.TID 0NORMAL END
000.0001)        System time:  0.0000000000000000E+000
(PID.TID 0000.0001)    Wall clock time:  0.7909419536590576
(PID.TID 0000.0001)         No. starts:          10
(PID.TID 0000.0001)          No. stops:          10
(PID.TID 0000.0001)  Seconds in section "BLOCKING_EXCHANGES  [THE_MAIN_LOOP]":
(PID.TID 0000.0001)          User time:  2.0000219345092773E-002
(PID.TID 0000.0001)        System time:  0.0000000000000000E+000
(PID.TID 0000.0001)    Wall clock time:  1.9060015678405762E-002
(PID.TID 0000.0001)         No. starts:          10
(PID.TID 0000.0001)          No. stops:          10
(PID.TID 0000.0001)  Seconds in section "DO_THE_MODEL_IO     [THE_MAIN_LOOP]":
(PID.TID 0000.0001)          User time:  0.0000000000000000E+000
(PID.TID 0000.0001)        System time:  0.0000000000000000E+000
(PID.TID 0000.0001)    Wall clock time:  7.3735117912292480E-002
(PID.TID 0000.0001)         No. starts:          10
(PID.TID 0000.0001)          No. stops:          10
(PID.TID 0000.0001)  Seconds in section "WRITE_CHECKPOINT    [THE_MAIN_LOOP]":
(PID.TID 0000.0001)          User time:  0.0000000000000000E+000
(PID.TID 0000.0001)        System time:  0.0000000000000000E+000
(PID.TID 0000.0001)    Wall clock time:  1.4969110488891602E-003
(PID.TID 0000.0001)         No. starts:          10
(PID.TID 0000.0001)          No. stops:          10
(PID.TID 0000.0001)  Seconds in section "WRITE_CHECKPOINT   [THE_MODEL_MAIN]":
(PID.TID 0000.0001)          User time:  1.0000228881835938E-002
(PID.TID 0000.0001)        System time:  1.9999995827674866E-002
(PID.TID 0000.0001)    Wall clock time:  4.5863032341003418E-002
(PID.TID 0000.0001)         No. starts:           1
(PID.TID 0000.0001)          No. stops:           1
(PID.TID 0000.0001) // ======================================================
(PID.TID 0000.0001) // Tile <-> Tile communication statistics
(PID.TID 0000.0001) // ======================================================
(PID.TID 0000.0001) // o Tile number: 000001
(PID.TID 0000.0001) //         No. X exchanges =              0
(PID.TID 0000.0001) //            Max. X spins =              0
(PID.TID 0000.0001) //            Min. X spins =     1000000000
(PID.TID 0000.0001) //          Total. X spins =              0
(PID.TID 0000.0001) //            Avg. X spins =       0.00E+00
(PID.TID 0000.0001) //         No. Y exchanges =              0
(PID.TID 0000.0001) //            Max. Y spins =              0
(PID.TID 0000.0001) //            Min. Y spins =     1000000000
(PID.TID 0000.0001) //          Total. Y spins =              0
(PID.TID 0000.0001) //            Avg. Y spins =       0.00E+00
(PID.TID 0000.0001) // o Thread number: 000001
(PID.TID 0000.0001) //            No. barriers =           5040
(PID.TID 0000.0001) //      Max. barrier spins =              1
(PID.TID 0000.0001) //      Min. barrier spins =              1
(PID.TID 0000.0001) //     Total barrier spins =           5040
(PID.TID 0000.0001) //      Avg. barrier spins =       1.00E+00
